methyl isothiocyanate
     RDKit          3D

  7  6  0  0  0  0  0  0  0  0999 V2000
    2.3623    0.1353    0.0007 C   0  0  0  0  0  0  0  0  0  0  0  0
    0.9972   -0.2742   -0.0036 N   0  0  0  0  0  0  0  0  0  0  0  0
   -0.1788   -0.0859   -0.0003 C   0  0  0  0  0  0  0  0  0  0  0  0
   -1.7670    0.0564    0.0008 S   0  0  0  0  0  0  0  0  0  0  0  0
    2.7358    0.1832    1.0291 H   0  0  0  0  0  0  0  0  0  0  0  0
    2.4713    1.1213   -0.4645 H   0  0  0  0  0  0  0  0  0  0  0  0
    2.9675   -0.5874   -0.5531 H   0  0  0  0  0  0  0  0  0  0  0  0
  2  1  1  0
  3  2  2  0
  4  3  2  0
  5  1  1  0
  6  1  1  0
  7  1  1  0
M  END
>  <_FileComments>  (1) 
methyl isothiocyanate

$$$$
crotonaldehyde (trans-2-butenal) s-trans
     RDKit          3D

 11 10  0  0  0  0  0  0  0  0999 V2000
   -2.4729   -0.2532    0.0001 O   0  0  0  0  0  0  0  0  0  0  0  0
   -1.4037    0.3349    0.0001 C   0  0  0  0  0  0  0  0  0  0  0  0
   -0.0920   -0.3245   -0.0000 C   0  0  0  0  0  0  0  0  0  0  0  0
    1.0460    0.3921   -0.0000 C   0  0  0  0  0  0  0  0  0  0  0  0
    2.4330   -0.1673   -0.0001 C   0  0  0  0  0  0  0  0  0  0  0  0
   -1.3731    1.4471    0.0002 H   0  0  0  0  0  0  0  0  0  0  0  0
   -0.0895   -1.4127   -0.0001 H   0  0  0  0  0  0  0  0  0  0  0  0
    0.9646    1.4811    0.0001 H   0  0  0  0  0  0  0  0  0  0  0  0
    2.4326   -1.2605   -0.0003 H   0  0  0  0  0  0  0  0  0  0  0  0
    2.9898    0.1819   -0.8789 H   0  0  0  0  0  0  0  0  0  0  0  0
    2.9897    0.1815    0.8790 H   0  0  0  0  0  0  0  0  0  0  0  0
  2  1  2  0
  3  2  1  0
  4  3  2  0
  5  4  1  0
  6  2  1  0
  7  3  1  0
  8  4  1  0
  9  5  1  0
 10  5  1  0
 11  5  1  0
M  END
>  <_FileComments>  (2) 
crotonaldehyde (trans-2-butenal) s-trans

$$$$
(E)-3,4-dimethyl-2-pentene
     RDKit          3D

 21 20  0  0  0  0  0  0  0  0999 V2000
   -2.6543   -0.6314    0.3402 C   0  0  0  0  0  0  0  0  0  0  0  0
   -1.1603   -0.6978    0.1684 C   0  0  0  0  0  0  0  0  0  0  0  0
   -0.3128    0.2830   -0.1886 C   0  0  0  0  0  0  0  0  0  0  0  0
    1.1972    0.0585   -0.2962 C   0  0  0  0  0  0  0  0  0  0  0  0
    1.6255   -1.3990   -0.5233 C   0  0  0  0  0  0  0  0  0  0  0  0
    1.9346    0.6397    0.9314 C   0  0  0  0  0  0  0  0  0  0  0  0
   -0.7490    1.6940   -0.5165 C   0  0  0  0  0  0  0  0  0  0  0  0
   -2.9391   -0.9093    1.3636 H   0  0  0  0  0  0  0  0  0  0  0  0
   -3.0733    0.3566    0.1371 H   0  0  0  0  0  0  0  0  0  0  0  0
   -3.1535   -1.3472   -0.3263 H   0  0  0  0  0  0  0  0  0  0  0  0
   -0.7403   -1.6827    0.3656 H   0  0  0  0  0  0  0  0  0  0  0  0
    1.5332    0.6323   -1.1739 H   0  0  0  0  0  0  0  0  0  0  0  0
    1.1101   -1.8412   -1.3822 H   0  0  0  0  0  0  0  0  0  0  0  0
    2.7038   -1.4478   -0.7111 H   0  0  0  0  0  0  0  0  0  0  0  0
    1.4224   -2.0247    0.3533 H   0  0  0  0  0  0  0  0  0  0  0  0
    3.0208    0.5730    0.7995 H   0  0  0  0  0  0  0  0  0  0  0  0
    1.6862    1.6920    1.1020 H   0  0  0  0  0  0  0  0  0  0  0  0
    1.6668    0.0810    1.8356 H   0  0  0  0  0  0  0  0  0  0  0  0
   -0.2009    2.4303    0.0840 H   0  0  0  0  0  0  0  0  0  0  0  0
   -0.5322    1.9263   -1.5680 H   0  0  0  0  0  0  0  0  0  0  0  0
   -1.8141    1.8649   -0.3519 H   0  0  0  0  0  0  0  0  0  0  0  0
  2  1  1  0
  3  2  2  0
  4  3  1  0
  5  4  1  0
  6  4  1  0
  7  3  1  0
  8  1  1  0
  9  1  1  0
 10  1  1  0
 11  2  1  0
 12  4  1  0
 13  5  1  0
 14  5  1  0
 15  5  1  0
 16  6  1  0
 17  6  1  0
 18  6  1  0
 19  7  1  0
 20  7  1  0
 21  7  1  0
M  END
>  <_FileComments>  (3) 
(E)-3,4-dimethyl-2-pentene

$$$$
maleic anhydride
     RDKit          3D

  9  9  0  0  0  0  0  0  0  0999 V2000
   -2.1978    3.2864    0.0575 O   0  0  0  0  0  0  0  0  0  0  0  0
   -2.6170    4.6163    0.0525 C   0  0  0  0  0  0  0  0  0  0  0  0
   -0.8035    3.2608    0.0552 C   0  0  0  0  0  0  0  0  0  0  0  0
   -1.3973    5.4740    0.0499 C   0  0  0  0  0  0  0  0  0  0  0  0
   -0.3263    4.6734    0.0515 C   0  0  0  0  0  0  0  0  0  0  0  0
   -3.7746    4.9292    0.0543 O   0  0  0  0  0  0  0  0  0  0  0  0
   -0.1757    2.2392    0.0595 O   0  0  0  0  0  0  0  0  0  0  0  0
   -1.4552    6.5543    0.0474 H   0  0  0  0  0  0  0  0  0  0  0  0
    0.7262    4.9239    0.0506 H   0  0  0  0  0  0  0  0  0  0  0  0
  2  1  1  0
  3  1  1  0
  4  2  1  0
  5  3  1  0
  5  4  2  0
  6  2  2  0
  7  3  2  0
  8  4  1  0
  9  5  1  0
M  END
>  <_FileComments>  (4) 
maleic anhydride

$$$$
2,5-dihydrofuran
     RDKit          3D

 11 11  0  0  0  0  0  0  0  0999 V2000
    0.0004   -1.1903    0.0000 O   0  0  0  0  0  0  0  0  0  0  0  0
    0.0000   -0.3700    1.1777 C   0  0  0  0  0  0  0  0  0  0  0  0
    0.0000   -0.3700   -1.1777 C   0  0  0  0  0  0  0  0  0  0  0  0
    0.0000    1.0459    0.6668 C   0  0  0  0  0  0  0  0  0  0  0  0
    0.0000    1.0459   -0.6668 C   0  0  0  0  0  0  0  0  0  0  0  0
   -0.8886   -0.6014    1.7844 H   0  0  0  0  0  0  0  0  0  0  0  0
    0.8883   -0.6014    1.7849 H   0  0  0  0  0  0  0  0  0  0  0  0
   -0.8886   -0.6014   -1.7844 H   0  0  0  0  0  0  0  0  0  0  0  0
    0.8883   -0.6014   -1.7849 H   0  0  0  0  0  0  0  0  0  0  0  0
   -0.0001    1.9143    1.3163 H   0  0  0  0  0  0  0  0  0  0  0  0
   -0.0001    1.9143   -1.3163 H   0  0  0  0  0  0  0  0  0  0  0  0
  2  1  1  0
  3  1  1  0
  4  2  1  0
  5  4  2  0
  5  3  1  0
  6  2  1  0
  7  2  1  0
  8  3  1  0
  9  3  1  0
 10  4  1  0
 11  5  1  0
M  END
>  <_FileComments>  (5) 
2,5-dihydrofuran

$$$$
pyridine
     RDKit          3D

 11 11  0  0  0  0  0  0  0  0999 V2000
    0.0000   -1.4206    0.0000 N   0  0  0  0  0  0  0  0  0  0  0  0
    1.1446   -0.7230    0.0000 C   0  0  0  0  0  0  0  0  0  0  0  0
   -1.1446   -0.7230    0.0000 C   0  0  0  0  0  0  0  0  0  0  0  0
    1.2000    0.6737    0.0000 C   0  0  0  0  0  0  0  0  0  0  0  0
   -1.2000    0.6737    0.0000 C   0  0  0  0  0  0  0  0  0  0  0  0
    0.0000    1.3869    0.0000 C   0  0  0  0  0  0  0  0  0  0  0  0
    2.0613   -1.3095    0.0000 H   0  0  0  0  0  0  0  0  0  0  0  0
   -2.0613   -1.3095    0.0000 H   0  0  0  0  0  0  0  0  0  0  0  0
    2.1589    1.1826    0.0000 H   0  0  0  0  0  0  0  0  0  0  0  0
   -2.1589    1.1826    0.0000 H   0  0  0  0  0  0  0  0  0  0  0  0
    0.0000    2.4733    0.0000 H   0  0  0  0  0  0  0  0  0  0  0  0
  2  1  2  0
  3  1  1  0
  4  2  1  0
  5  3  2  0
  6  5  1  0
  6  4  2  0
  7  2  1  0
  8  3  1  0
  9  4  1  0
 10  5  1  0
 11  6  1  0
M  END
>  <_FileComments>  (6) 
pyridine

$$$$
2-methylpyrazine
     RDKit          3D

 13 13  0  0  0  0  0  0  0  0999 V2000
   -0.2265   -1.1989    0.0000 N   0  0  0  0  0  0  0  0  0  0  0  0
   -0.8621   -0.0150    0.0000 C   0  0  0  0  0  0  0  0  0  0  0  0
   -0.1287    1.1832    0.0000 C   0  0  0  0  0  0  0  0  0  0  0  0
    1.2079    1.2151    0.0000 N   0  0  0  0  0  0  0  0  0  0  0  0
    1.8273    0.0295    0.0000 C   0  0  0  0  0  0  0  0  0  0  0  0
    1.1098   -1.1696    0.0000 C   0  0  0  0  0  0  0  0  0  0  0  0
   -2.3666   -0.0313   -0.0001 C   0  0  0  0  0  0  0  0  0  0  0  0
   -2.7408   -0.5616    0.8818 H   0  0  0  0  0  0  0  0  0  0  0  0
   -2.7797    0.9808   -0.0013 H   0  0  0  0  0  0  0  0  0  0  0  0
   -2.7406   -0.5638   -0.8808 H   0  0  0  0  0  0  0  0  0  0  0  0
   -0.6404    2.1432   -0.0002 H   0  0  0  0  0  0  0  0  0  0  0  0
    2.9145    0.0346    0.0003 H   0  0  0  0  0  0  0  0  0  0  0  0
    1.6242   -2.1281    0.0002 H   0  0  0  0  0  0  0  0  0  0  0  0
  2  1  1  0
  3  2  2  0
  4  3  1  0
  5  4  2  0
  6  5  1  0
  6  1  2  0
  7  2  1  0
  8  7  1  0
  9  7  1  0
 10  7  1  0
 11  3  1  0
 12  5  1  0
 13  6  1  0
M  END
>  <_FileComments>  (7) 
2-methylpyrazine

$$$$
methylenecyclobutane
     RDKit          3D

 13 13  0  0  0  0  0  0  0  0999 V2000
    0.6366    1.8345    0.0000 C   0  0  0  0  0  0  0  0  0  0  0  0
    0.1043    0.6135    0.0000 C   0  0  0  0  0  0  0  0  0  0  0  0
   -0.2372   -0.3907    1.0946 C   0  0  0  0  0  0  0  0  0  0  0  0
   -0.2372   -0.3907   -1.0946 C   0  0  0  0  0  0  0  0  0  0  0  0
   -0.2340   -1.5038    0.0000 C   0  0  0  0  0  0  0  0  0  0  0  0
    0.8646    2.3539   -0.9275 H   0  0  0  0  0  0  0  0  0  0  0  0
    0.8646    2.3539    0.9275 H   0  0  0  0  0  0  0  0  0  0  0  0
   -1.2362   -0.2252    1.5170 H   0  0  0  0  0  0  0  0  0  0  0  0
    0.4746   -0.4889    1.9208 H   0  0  0  0  0  0  0  0  0  0  0  0
   -1.2362   -0.2252   -1.5170 H   0  0  0  0  0  0  0  0  0  0  0  0
    0.4746   -0.4889   -1.9208 H   0  0  0  0  0  0  0  0  0  0  0  0
   -1.0788   -2.1977    0.0000 H   0  0  0  0  0  0  0  0  0  0  0  0
    0.6964   -2.0787    0.0000 H   0  0  0  0  0  0  0  0  0  0  0  0
  2  1  2  0
  3  2  1  0
  4  2  1  0
  5  4  1  0
  5  3  1  0
  6  1  1  0
  7  1  1  0
  8  3  1  0
  9  3  1  0
 10  4  1  0
 11  4  1  0
 12  5  1  0
 13  5  1  0
M  END
>  <_FileComments>  (8) 
methylenecyclobutane

$$$$
1,3-dioxane
     RDKit          3D

 14 14  0  0  0  0  0  0  0  0999 V2000
   -0.6229   -1.2172    0.0000 C   0  0  0  0  0  0  0  0  0  0  0  0
    0.0123   -0.7661    1.1746 O   0  0  0  0  0  0  0  0  0  0  0  0
    0.0123   -0.7661   -1.1746 O   0  0  0  0  0  0  0  0  0  0  0  0
    0.0191    0.6627    1.2470 C   0  0  0  0  0  0  0  0  0  0  0  0
    0.0191    0.6627   -1.2470 C   0  0  0  0  0  0  0  0  0  0  0  0
    0.6816    1.2553    0.0000 C   0  0  0  0  0  0  0  0  0  0  0  0
   -1.6784   -0.8827    0.0000 H   0  0  0  0  0  0  0  0  0  0  0  0
   -0.5628   -2.3056    0.0000 H   0  0  0  0  0  0  0  0  0  0  0  0
   -1.0182    1.0276    1.3415 H   0  0  0  0  0  0  0  0  0  0  0  0
    0.5574    0.9206    2.1621 H   0  0  0  0  0  0  0  0  0  0  0  0
   -1.0182    1.0276   -1.3415 H   0  0  0  0  0  0  0  0  0  0  0  0
    0.5574    0.9206   -2.1621 H   0  0  0  0  0  0  0  0  0  0  0  0
    0.5873    2.3483    0.0000 H   0  0  0  0  0  0  0  0  0  0  0  0
    1.7479    1.0039    0.0000 H   0  0  0  0  0  0  0  0  0  0  0  0
  2  1  1  0
  3  1  1  0
  4  2  1  0
  5  3  1  0
  6  5  1  0
  6  4  1  0
  7  1  1  0
  8  1  1  0
  9  4  1  0
 10  4  1  0
 11  5  1  0
 12  5  1  0
 13  6  1  0
 14  6  1  0
M  END
>  <_FileComments>  (9) 
1,3-dioxane

$$$$
dimethylacetal
     RDKit          3D

 16 15  0  0  0  0  0  0  0  0999 V2000
    0.0025    0.4022    0.2446 C   0  0  0  0  0  0  0  0  0  0  0  0
    0.5261    1.8098    0.0093 C   0  0  0  0  0  0  0  0  0  0  0  0
   -1.3268    0.3682   -0.1825 O   0  0  0  0  0  0  0  0  0  0  0  0
    0.7377   -0.5714   -0.4959 O   0  0  0  0  0  0  0  0  0  0  0  0
    1.9148   -1.0405    0.1398 C   0  0  0  0  0  0  0  0  0  0  0  0
   -2.0075   -0.8529    0.0911 C   0  0  0  0  0  0  0  0  0  0  0  0
    0.0603    0.1267    1.3169 H   0  0  0  0  0  0  0  0  0  0  0  0
   -0.0499    2.5308    0.5964 H   0  0  0  0  0  0  0  0  0  0  0  0
    1.5782    1.8852    0.2999 H   0  0  0  0  0  0  0  0  0  0  0  0
    0.4317    2.0568   -1.0517 H   0  0  0  0  0  0  0  0  0  0  0  0
    1.6979   -1.4490    1.1387 H   0  0  0  0  0  0  0  0  0  0  0  0
    2.3167   -1.8368   -0.4904 H   0  0  0  0  0  0  0  0  0  0  0  0
    2.6761   -0.2535    0.2390 H   0  0  0  0  0  0  0  0  0  0  0  0
   -3.0412   -0.7080   -0.2286 H   0  0  0  0  0  0  0  0  0  0  0  0
   -1.5640   -1.6879   -0.4607 H   0  0  0  0  0  0  0  0  0  0  0  0
   -1.9914   -1.0781    1.1681 H   0  0  0  0  0  0  0  0  0  0  0  0
  2  1  1  0
  3  1  1  0
  4  1  1  0
  5  4  1  0
  6  3  1  0
  7  1  1  0
  8  2  1  0
  9  2  1  0
 10  2  1  0
 11  5  1  0
 12  5  1  0
 13  5  1  0
 14  6  1  0
 15  6  1  0
 16  6  1  0
M  END
>  <_FileComments>  (10) 
dimethylacetal

$$$$
2-methylthiophene
     RDKit          3D

 12 12  0  0  0  0  0  0  0  0999 V2000
   -0.2373   -1.1966    0.0001 S   0  0  0  0  0  0  0  0  0  0  0  0
    0.7876    0.2229    0.0001 C   0  0  0  0  0  0  0  0  0  0  0  0
    0.0206    1.3602    0.0001 C   0  0  0  0  0  0  0  0  0  0  0  0
   -1.3883    1.1053    0.0001 C   0  0  0  0  0  0  0  0  0  0  0  0
   -1.6828   -0.2302    0.0002 C   0  0  0  0  0  0  0  0  0  0  0  0
    2.2834    0.1047    0.0002 C   0  0  0  0  0  0  0  0  0  0  0  0
    0.4526    2.3557   -0.0000 H   0  0  0  0  0  0  0  0  0  0  0  0
   -2.1434    1.8834    0.0001 H   0  0  0  0  0  0  0  0  0  0  0  0
   -2.6535   -0.7067    0.0002 H   0  0  0  0  0  0  0  0  0  0  0  0
    2.6523   -0.4274    0.8847 H   0  0  0  0  0  0  0  0  0  0  0  0
    2.6523   -0.4292   -0.8832 H   0  0  0  0  0  0  0  0  0  0  0  0
    2.7314    1.1026   -0.0009 H   0  0  0  0  0  0  0  0  0  0  0  0
  2  1  1  0
  3  2  2  0
  4  3  1  0
  5  4  2  0
  5  1  1  0
  6  2  1  0
  7  3  1  0
  8  4  1  0
  9  5  1  0
 10  6  1  0
 11  6  1  0
 12  6  1  0
M  END
>  <_FileComments>  (11) 
2-methylthiophene

$$$$
malononitrile
     RDKit          3D

  7  6  0  0  0  0  0  0  0  0999 V2000
    0.0000    0.0000    0.8373 C   0  0  0  0  0  0  0  0  0  0  0  0
    0.0000    1.2255    0.0260 C   0  0  0  0  0  0  0  0  0  0  0  0
    0.0000   -1.2255    0.0260 C   0  0  0  0  0  0  0  0  0  0  0  0
    0.0000    2.2089   -0.5882 N   0  0  0  0  0  0  0  0  0  0  0  0
    0.0000   -2.2089   -0.5882 N   0  0  0  0  0  0  0  0  0  0  0  0
    0.8835    0.0000    1.4869 H   0  0  0  0  0  0  0  0  0  0  0  0
   -0.8835    0.0000    1.4869 H   0  0  0  0  0  0  0  0  0  0  0  0
  2  1  1  0
  3  1  1  0
  4  2  3  0
  5  3  3  0
  6  1  1  0
  7  1  1  0
M  END
>  <_FileComments>  (12) 
malononitrile

$$$$
ethylene carbonate
     RDKit          3D

 10 10  0  0  0  0  0  0  0  0999 V2000
    0.0000    0.0000    0.8519 C   0  0  0  0  0  0  0  0  0  0  0  0
   -0.0013    1.1180    0.0714 O   0  0  0  0  0  0  0  0  0  0  0  0
    0.1865    0.7440   -1.3046 C   0  0  0  0  0  0  0  0  0  0  0  0
   -0.1865   -0.7440   -1.3046 C   0  0  0  0  0  0  0  0  0  0  0  0
    0.0013   -1.1180    0.0714 O   0  0  0  0  0  0  0  0  0  0  0  0
    0.0000    0.0000    2.0484 O   0  0  0  0  0  0  0  0  0  0  0  0
    1.2330    0.9188   -1.5749 H   0  0  0  0  0  0  0  0  0  0  0  0
   -0.4642    1.3620   -1.9248 H   0  0  0  0  0  0  0  0  0  0  0  0
   -1.2330   -0.9188   -1.5749 H   0  0  0  0  0  0  0  0  0  0  0  0
    0.4642   -1.3620   -1.9248 H   0  0  0  0  0  0  0  0  0  0  0  0
  2  1  1  0
  3  2  1  0
  4  3  1  0
  5  4  1  0
  5  1  1  0
  6  1  2  0
  7  3  1  0
  8  3  1  0
  9  4  1  0
 10  4  1  0
M  END
>  <_FileComments>  (13) 
ethylene carbonate

$$$$
ethyl sulfide
     RDKit          3D

 15 14  0  0  0  0  0  0  0  0999 V2000
    0.0000   -0.5622    0.0000 S   0  0  0  0  0  0  0  0  0  0  0  0
    1.4064    0.6210    0.0000 C   0  0  0  0  0  0  0  0  0  0  0  0
   -1.4064    0.6210    0.0000 C   0  0  0  0  0  0  0  0  0  0  0  0
    2.7364   -0.1328    0.0000 C   0  0  0  0  0  0  0  0  0  0  0  0
   -2.7364   -0.1328    0.0000 C   0  0  0  0  0  0  0  0  0  0  0  0
    1.3289    1.2598   -0.8869 H   0  0  0  0  0  0  0  0  0  0  0  0
    1.3289    1.2598    0.8869 H   0  0  0  0  0  0  0  0  0  0  0  0
   -1.3289    1.2598   -0.8869 H   0  0  0  0  0  0  0  0  0  0  0  0
   -1.3289    1.2598    0.8869 H   0  0  0  0  0  0  0  0  0  0  0  0
    2.8325   -0.7680   -0.8863 H   0  0  0  0  0  0  0  0  0  0  0  0
    3.5708    0.5769    0.0000 H   0  0  0  0  0  0  0  0  0  0  0  0
    2.8325   -0.7680    0.8863 H   0  0  0  0  0  0  0  0  0  0  0  0
   -2.8325   -0.7680    0.8863 H   0  0  0  0  0  0  0  0  0  0  0  0
   -3.5708    0.5769    0.0000 H   0  0  0  0  0  0  0  0  0  0  0  0
   -2.8325   -0.7680   -0.8863 H   0  0  0  0  0  0  0  0  0  0  0  0
  2  1  1  0
  3  1  1  0
  4  2  1  0
  5  3  1  0
  6  2  1  0
  7  2  1  0
  8  3  1  0
  9  3  1  0
 10  4  1  0
 11  4  1  0
 12  4  1  0
 13  5  1  0
 14  5  1  0
 15  5  1  0
M  END
>  <_FileComments>  (14) 
ethyl sulfide

$$$$
fumaronitrile
     RDKit          3D

  8  7  0  0  0  0  0  0  0  0999 V2000
    0.4880    0.4655   -0.0000 C   0  0  0  0  0  0  0  0  0  0  0  0
   -0.4880   -0.4655   -0.0000 C   0  0  0  0  0  0  0  0  0  0  0  0
    1.8711    0.1162    0.0000 C   0  0  0  0  0  0  0  0  0  0  0  0
   -1.8711   -0.1162    0.0000 C   0  0  0  0  0  0  0  0  0  0  0  0
    3.0056   -0.1439    0.0000 N   0  0  0  0  0  0  0  0  0  0  0  0
   -3.0056    0.1439    0.0000 N   0  0  0  0  0  0  0  0  0  0  0  0
    0.2523    1.5262    0.0000 H   0  0  0  0  0  0  0  0  0  0  0  0
   -0.2523   -1.5262    0.0000 H   0  0  0  0  0  0  0  0  0  0  0  0
  2  1  2  0
  3  1  1  0
  4  2  1  0
  5  3  3  0
  6  4  3  0
  7  1  1  0
  8  2  1  0
M  END
>  <_FileComments>  (15) 
fumaronitrile

$$$$
beta-butyrolactone
     RDKit          3D

 12 12  0  0  0  0  0  0  0  0999 V2000
    1.0788   -0.0118   -0.0366 C   0  0  0  0  0  0  0  0  0  0  0  0
    0.1090    1.1609    0.0815 C   0  0  0  0  0  0  0  0  0  0  0  0
   -0.9113    0.0729    0.4736 C   0  0  2  0  0  0  0  0  0  0  0  0
    0.1449   -0.9585    0.3080 O   0  0  0  0  0  0  0  0  0  0  0  0
   -2.0916   -0.1793   -0.4368 C   0  0  0  0  0  0  0  0  0  0  0  0
    2.2324   -0.1842   -0.3084 O   0  0  0  0  0  0  0  0  0  0  0  0
   -0.0820    1.6772   -0.8628 H   0  0  0  0  0  0  0  0  0  0  0  0
    0.3778    1.8859    0.8531 H   0  0  0  0  0  0  0  0  0  0  0  0
   -1.2043    0.0950    1.5268 H   0  0  0  0  0  0  0  0  0  0  0  0
   -2.5722   -1.1305   -0.1895 H   0  0  0  0  0  0  0  0  0  0  0  0
   -2.8312    0.6204   -0.3184 H   0  0  0  0  0  0  0  0  0  0  0  0
   -1.7785   -0.2123   -1.4853 H   0  0  0  0  0  0  0  0  0  0  0  0
  2  1  1  0
  3  2  1  0
  4  3  1  0
  4  1  1  0
  5  3  1  0
  6  1  2  0
  7  2  1  0
  8  2  1  0
  3  9  1  1
 10  5  1  0
 11  5  1  0
 12  5  1  0
M  END
>  <_FileComments>  (16) 
beta-butyrolactone

$$$$
dimethylcyanamide
     RDKit          3D

 11 10  0  0  0  0  0  0  0  0999 V2000
    0.2992    0.0001   -0.2350 N   0  0  0  0  0  0  0  0  0  0  0  0
    1.0152   -1.2473    0.0582 C   0  0  0  0  0  0  0  0  0  0  0  0
    1.0145    1.2478    0.0582 C   0  0  0  0  0  0  0  0  0  0  0  0
   -1.0258   -0.0003   -0.0444 C   0  0  0  0  0  0  0  0  0  0  0  0
   -2.1892   -0.0009    0.0783 N   0  0  0  0  0  0  0  0  0  0  0  0
    0.4217   -2.0947   -0.2884 H   0  0  0  0  0  0  0  0  0  0  0  0
    1.9658   -1.2390   -0.4823 H   0  0  0  0  0  0  0  0  0  0  0  0
    1.2148   -1.3634    1.1331 H   0  0  0  0  0  0  0  0  0  0  0  0
    1.9650    1.2402   -0.4823 H   0  0  0  0  0  0  0  0  0  0  0  0
    0.4205    2.0950   -0.2882 H   0  0  0  0  0  0  0  0  0  0  0  0
    1.2141    1.3641    1.1331 H   0  0  0  0  0  0  0  0  0  0  0  0
  2  1  1  0
  3  1  1  0
  4  1  1  0
  5  4  3  0
  6  2  1  0
  7  2  1  0
  8  2  1  0
  9  3  1  0
 10  3  1  0
 11  3  1  0
M  END
>  <_FileComments>  (17) 
dimethylcyanamide

$$$$
allyl isothiocyanate
     RDKit          3D

 11 10  0  0  0  0  0  0  0  0999 V2000
   -2.9250   -0.8827   -0.2742 C   0  0  0  0  0  0  0  0  0  0  0  0
   -1.9324   -0.3279    0.4236 C   0  0  0  0  0  0  0  0  0  0  0  0
   -1.3053    0.9990    0.0749 C   0  0  0  0  0  0  0  0  0  0  0  0
    0.1172    0.9067   -0.1305 N   0  0  0  0  0  0  0  0  0  0  0  0
    1.1407    0.2951   -0.0613 C   0  0  0  0  0  0  0  0  0  0  0  0
    2.5629   -0.4206   -0.0162 S   0  0  0  0  0  0  0  0  0  0  0  0
   -3.3339   -0.4084   -1.1635 H   0  0  0  0  0  0  0  0  0  0  0  0
   -3.3645   -1.8302    0.0221 H   0  0  0  0  0  0  0  0  0  0  0  0
   -1.5309   -0.8255    1.3052 H   0  0  0  0  0  0  0  0  0  0  0  0
   -1.7576    1.4125   -0.8327 H   0  0  0  0  0  0  0  0  0  0  0  0
   -1.4731    1.7272    0.8796 H   0  0  0  0  0  0  0  0  0  0  0  0
  2  1  2  0
  3  2  1  0
  4  3  1  0
  5  4  2  0
  6  5  2  0
  7  1  1  0
  8  1  1  0
  9  2  1  0
 10  3  1  0
 11  3  1  0
M  END
>  <_FileComments>  (18) 
allyl isothiocyanate

$$$$
1,3,5-triazine
     RDKit          3D

  9  9  0  0  0  0  0  0  0  0999 V2000
   -0.6872   -1.1904    0.0000 N   0  0  0  0  0  0  0  0  0  0  0  0
   -1.2973   -0.0000    0.0000 C   0  0  0  0  0  0  0  0  0  0  0  0
   -0.6872    1.1904    0.0000 N   0  0  0  0  0  0  0  0  0  0  0  0
    0.6486    1.1235    0.0000 C   0  0  0  0  0  0  0  0  0  0  0  0
    1.3747    0.0000   -0.0000 N   0  0  0  0  0  0  0  0  0  0  0  0
    0.6487   -1.1235   -0.0000 C   0  0  0  0  0  0  0  0  0  0  0  0
   -2.3848   -0.0000    0.0000 H   0  0  0  0  0  0  0  0  0  0  0  0
    1.1925    2.0653   -0.0000 H   0  0  0  0  0  0  0  0  0  0  0  0
    1.1925   -2.0653    0.0000 H   0  0  0  0  0  0  0  0  0  0  0  0
  2  1  1  0
  3  2  2  0
  4  3  1  0
  5  4  2  0
  6  5  1  0
  6  1  2  0
  7  2  1  0
  8  4  1  0
  9  6  1  0
M  END
>  <_FileComments>  (19) 
1,3,5-triazine

$$$$
diketene
     RDKit          3D

 10 10  0  0  0  0  0  0  0  0999 V2000
   -1.0526   -0.0045   -0.0003 C   0  0  0  0  0  0  0  0  0  0  0  0
   -0.0406   -0.9672    0.0002 O   0  0  0  0  0  0  0  0  0  0  0  0
    0.9601    0.0356    0.0000 C   0  0  0  0  0  0  0  0  0  0  0  0
   -0.0541    1.1553    0.0002 C   0  0  0  0  0  0  0  0  0  0  0  0
   -2.2308   -0.1860   -0.0002 O   0  0  0  0  0  0  0  0  0  0  0  0
    2.2697   -0.1579   -0.0001 C   0  0  0  0  0  0  0  0  0  0  0  0
   -0.0920    1.7812   -0.8952 H   0  0  0  0  0  0  0  0  0  0  0  0
   -0.0922    1.7805    0.8960 H   0  0  0  0  0  0  0  0  0  0  0  0
    2.6884   -1.1576   -0.0002 H   0  0  0  0  0  0  0  0  0  0  0  0
    2.9432    0.6906   -0.0001 H   0  0  0  0  0  0  0  0  0  0  0  0
  2  1  1  0
  3  2  1  0
  4  3  1  0
  4  1  1  0
  5  1  2  0
  6  3  2  0
  7  4  1  0
  8  4  1  0
  9  6  1  0
 10  6  1  0
M  END
>  <_FileComments>  (20) 
diketene

$$$$
pivalaldehyde
     RDKit          3D

 16 15  0  0  0  0  0  0  0  0999 V2000
    0.3279    0.0284    0.0000 C   0  0  0  0  0  0  0  0  0  0  0  0
    0.1731    1.5539   -0.0001 C   0  0  0  0  0  0  0  0  0  0  0  0
    1.0785   -0.4537    1.2632 C   0  0  0  0  0  0  0  0  0  0  0  0
    1.0800   -0.4537   -1.2623 C   0  0  0  0  0  0  0  0  0  0  0  0
   -1.0333   -0.6579   -0.0008 C   0  0  0  0  0  0  0  0  0  0  0  0
   -2.1106   -0.1003   -0.0011 O   0  0  0  0  0  0  0  0  0  0  0  0
   -0.3780    1.8945    0.8813 H   0  0  0  0  0  0  0  0  0  0  0  0
    1.1579    2.0339    0.0005 H   0  0  0  0  0  0  0  0  0  0  0  0
   -0.3769    1.8944   -0.8823 H   0  0  0  0  0  0  0  0  0  0  0  0
    0.5751   -0.1195    2.1768 H   0  0  0  0  0  0  0  0  0  0  0  0
    1.1552   -1.5468    1.2953 H   0  0  0  0  0  0  0  0  0  0  0  0
    2.0961   -0.0481    1.2692 H   0  0  0  0  0  0  0  0  0  0  0  0
    1.1568   -1.5468   -1.2941 H   0  0  0  0  0  0  0  0  0  0  0  0
    0.5778   -0.1197   -2.1764 H   0  0  0  0  0  0  0  0  0  0  0  0
    2.0977   -0.0481   -1.2670 H   0  0  0  0  0  0  0  0  0  0  0  0
   -0.9826   -1.7718   -0.0009 H   0  0  0  0  0  0  0  0  0  0  0  0
  2  1  1  0
  3  1  1  0
  4  1  1  0
  5  1  1  0
  6  5  2  0
  7  2  1  0
  8  2  1  0
  9  2  1  0
 10  3  1  0
 11  3  1  0
 12  3  1  0
 13  4  1  0
 14  4  1  0
 15  4  1  0
 16  5  1  0
M  END
>  <_FileComments>  (21) 
pivalaldehyde

$$$$
isoprene
     RDKit          3D

 13 12  0  0  0  0  0  0  0  0999 V2000
    1.5913   -0.9107    0.0000 C   0  0  0  0  0  0  0  0  0  0  0  0
    0.5165   -0.0985   -0.0000 C   0  0  0  0  0  0  0  0  0  0  0  0
   -0.8335   -0.6788    0.0001 C   0  0  0  0  0  0  0  0  0  0  0  0
   -1.9898    0.0045    0.0001 C   0  0  0  0  0  0  0  0  0  0  0  0
    0.6611    1.4044    0.0001 C   0  0  0  0  0  0  0  0  0  0  0  0
    1.4842   -1.9922    0.0002 H   0  0  0  0  0  0  0  0  0  0  0  0
    2.6040   -0.5186    0.0001 H   0  0  0  0  0  0  0  0  0  0  0  0
   -0.8714   -1.7678    0.0001 H   0  0  0  0  0  0  0  0  0  0  0  0
   -2.0256    1.0899    0.0001 H   0  0  0  0  0  0  0  0  0  0  0  0
   -2.9444   -0.5120    0.0001 H   0  0  0  0  0  0  0  0  0  0  0  0
    0.1826    1.8475   -0.8816 H   0  0  0  0  0  0  0  0  0  0  0  0
    0.1829    1.8473    0.8820 H   0  0  0  0  0  0  0  0  0  0  0  0
    1.7136    1.6985   -0.0001 H   0  0  0  0  0  0  0  0  0  0  0  0
  2  1  2  0
  3  2  1  0
  4  3  2  0
  5  2  1  0
  6  1  1  0
  7  1  1  0
  8  3  1  0
  9  4  1  0
 10  4  1  0
 11  5  1  0
 12  5  1  0
 13  5  1  0
M  END
>  <_FileComments>  (22) 
isoprene

$$$$
tert-butyl isocyanide
     RDKit          3D

 15 14  0  0  0  0  0  0  0  0999 V2000
   -0.2580   -0.0002    0.0001 C   0  0  0  0  0  0  0  0  0  0  0  0
   -0.7376   -0.4765    1.3842 C   0  0  0  0  0  0  0  0  0  0  0  0
   -0.7350    1.4374   -0.2797 C   0  0  0  0  0  0  0  0  0  0  0  0
   -0.7348   -0.9606   -1.1056 C   0  0  0  0  0  0  0  0  0  0  0  0
    1.1878   -0.0006    0.0017 N   0  0  0  0  0  0  0  0  0  0  0  0
    2.3635   -0.0010    0.0031 C   0  0  0  0  0  0  0  0  0  0  0  0
   -1.8317   -0.4830    1.4122 H   0  0  0  0  0  0  0  0  0  0  0  0
   -0.3773   -1.4880    1.5922 H   0  0  0  0  0  0  0  0  0  0  0  0
   -0.3726    0.1901    2.1707 H   0  0  0  0  0  0  0  0  0  0  0  0
   -0.3666    2.1239    0.4878 H   0  0  0  0  0  0  0  0  0  0  0  0
   -0.3762    1.7815   -1.2538 H   0  0  0  0  0  0  0  0  0  0  0  0
   -1.8291    1.4685   -0.2797 H   0  0  0  0  0  0  0  0  0  0  0  0
   -0.3745   -0.6330   -2.0849 H   0  0  0  0  0  0  0  0  0  0  0  0
   -0.3673   -1.9743   -0.9226 H   0  0  0  0  0  0  0  0  0  0  0  0
   -1.8288   -0.9842   -1.1260 H   0  0  0  0  0  0  0  0  0  0  0  0
  2  1  1  0
  3  1  1  0
  4  1  1  0
  5  1  1  0
  6  5  3  0
  7  2  1  0
  8  2  1  0
  9  2  1  0
 10  3  1  0
 11  3  1  0
 12  3  1  0
 13  4  1  0
 14  4  1  0
 15  4  1  0
M  CHG  2   5   1   6  -1
M  END
>  <_FileComments>  (23) 
tert-butyl isocyanide

$$$$
ethyl cyanoformate
     RDKit          3D

 12 11  0  0  0  0  0  0  0  0999 V2000
    2.9170   -1.0108   -0.0002 N   0  0  0  0  0  0  0  0  0  0  0  0
    1.9230   -0.4118   -0.0001 C   0  0  0  0  0  0  0  0  0  0  0  0
    0.7072    0.4171    0.0001 C   0  0  0  0  0  0  0  0  0  0  0  0
   -0.3804   -0.3526   -0.0000 O   0  0  0  0  0  0  0  0  0  0  0  0
   -1.6656    0.3459    0.0001 C   0  0  0  0  0  0  0  0  0  0  0  0
   -2.7525   -0.7086    0.0000 C   0  0  0  0  0  0  0  0  0  0  0  0
    0.7453    1.6260    0.0004 O   0  0  0  0  0  0  0  0  0  0  0  0
   -1.7004    0.9851   -0.8864 H   0  0  0  0  0  0  0  0  0  0  0  0
   -1.7004    0.9849    0.8868 H   0  0  0  0  0  0  0  0  0  0  0  0
   -2.6862   -1.3428   -0.8884 H   0  0  0  0  0  0  0  0  0  0  0  0
   -2.6862   -1.3430    0.8883 H   0  0  0  0  0  0  0  0  0  0  0  0
   -3.7307   -0.2170    0.0001 H   0  0  0  0  0  0  0  0  0  0  0  0
  2  1  3  0
  3  2  1  0
  4  3  1  0
  5  4  1  0
  6  5  1  0
  7  3  2  0
  8  5  1  0
  9  5  1  0
 10  6  1  0
 11  6  1  0
 12  6  1  0
M  END
>  <_FileComments>  (24) 
ethyl cyanoformate

$$$$
quadricyclane
     RDKit          3D

 15 18  0  0  0  0  0  0  0  0999 V2000
   -1.0847   -0.0239   -0.7101 C   0  0  2  0  0  0  0  0  0  0  0  0
    0.0003   -1.0850   -0.7101 C   0  0  1  0  0  0  0  0  0  0  0  0
    1.0847    0.0239   -0.7101 C   0  0  1  0  0  0  0  0  0  0  0  0
   -0.0003    1.0850   -0.7101 C   0  0  2  0  0  0  0  0  0  0  0  0
    0.8063    0.8245    0.5520 C   0  0  1  0  0  0  0  0  0  0  0  0
   -0.8063   -0.8245    0.5520 C   0  0  1  0  0  0  0  0  0  0  0  0
    0.0000    0.0000    1.5415 C   0  0  0  0  0  0  0  0  0  0  0  0
   -2.0345   -0.0060   -1.2316 H   0  0  0  0  0  0  0  0  0  0  0  0
    0.0394   -2.0342   -1.2316 H   0  0  0  0  0  0  0  0  0  0  0  0
    2.0345    0.0060   -1.2316 H   0  0  0  0  0  0  0  0  0  0  0  0
   -0.0394    2.0342   -1.2316 H   0  0  0  0  0  0  0  0  0  0  0  0
    1.5304    1.5650    0.8782 H   0  0  0  0  0  0  0  0  0  0  0  0
   -1.5304   -1.5650    0.8782 H   0  0  0  0  0  0  0  0  0  0  0  0
    0.6378   -0.6236    2.1801 H   0  0  0  0  0  0  0  0  0  0  0  0
   -0.6378    0.6236    2.1801 H   0  0  0  0  0  0  0  0  0  0  0  0
  2  1  1  0
  3  2  1  0
  4  3  1  0
  4  1  1  0
  5  4  1  0
  5  3  1  0
  6  2  1  0
  6  1  1  0
  7  6  1  0
  7  5  1  0
  1  8  1  6
  2  9  1  6
  3 10  1  6
  4 11  1  6
  5 12  1  1
  6 13  1  1
 14  7  1  0
 15  7  1  0
M  END
>  <_FileComments>  (25) 
quadricyclane

$$$$
