Dichloromethane
     RDKit          3D

  5  4  0  0  0  0  0  0  0  0999 V2000
    0.0000    0.0000    0.7686 C   0  0  0  0  0  0  0  0  0  0  0  0
    0.0000    1.4966   -0.2158 Cl  0  0  0  0  0  0  0  0  0  0  0  0
    0.0000   -1.4966   -0.2158 Cl  0  0  0  0  0  0  0  0  0  0  0  0
   -0.8997    0.0000    1.3788 H   0  0  0  0  0  0  0  0  0  0  0  0
    0.8997    0.0000    1.3788 H   0  0  0  0  0  0  0  0  0  0  0  0
  2  1  1  0
  3  1  1  0
  4  1  1  0
  5  1  1  0
M  END
>  <_FileComments>  (1) 
Dichloromethane

$$$$
Chloroform
     RDKit          3D

  5  4  0  0  0  0  0  0  0  0999 V2000
    0.0000    0.0000    0.4545 C   0  0  0  0  0  0  0  0  0  0  0  0
    0.0000    0.0000    1.5401 H   0  0  0  0  0  0  0  0  0  0  0  0
    0.0000    1.7050   -0.0837 Cl  0  0  0  0  0  0  0  0  0  0  0  0
    1.4766   -0.8525   -0.0837 Cl  0  0  0  0  0  0  0  0  0  0  0  0
   -1.4766   -0.8525   -0.0837 Cl  0  0  0  0  0  0  0  0  0  0  0  0
  2  1  1  0
  3  1  1  0
  4  1  1  0
  5  1  1  0
M  END
>  <_FileComments>  (2) 
Chloroform

$$$$
Methanol
     RDKit          3D

  6  5  0  0  0  0  0  0  0  0999 V2000
   -0.0478    0.6701    0.0000 C   0  0  0  0  0  0  0  0  0  0  0  0
   -0.0388   -0.7546    0.0000 O   0  0  0  0  0  0  0  0  0  0  0  0
   -1.0966    0.9747    0.0000 H   0  0  0  0  0  0  0  0  0  0  0  0
    0.4354    1.0868    0.8945 H   0  0  0  0  0  0  0  0  0  0  0  0
    0.4354    1.0868   -0.8945 H   0  0  0  0  0  0  0  0  0  0  0  0
    0.8750   -1.0644    0.0000 H   0  0  0  0  0  0  0  0  0  0  0  0
  2  1  1  0
  3  1  1  0
  4  1  1  0
  5  1  1  0
  6  2  1  0
M  END
>  <_FileComments>  (3) 
Methanol

$$$$
Nitromethane
     RDKit          3D

  7  6  0  0  0  0  0  0  0  0999 V2000
   -1.0488   -1.6318    0.0000 H   0  0  0  0  0  0  0  0  0  0  0  0
   -0.0001   -1.3281    0.0000 C   0  0  0  0  0  0  0  0  0  0  0  0
    0.0106    0.1721    0.0000 N   0  0  0  0  0  0  0  0  0  0  0  0
   -0.0011    0.7343    1.0920 O   0  0  0  0  0  0  0  0  0  0  0  0
   -0.0011    0.7343   -1.0920 O   0  0  0  0  0  0  0  0  0  0  0  0
    0.4950   -1.6683   -0.9071 H   0  0  0  0  0  0  0  0  0  0  0  0
    0.4950   -1.6683    0.9071 H   0  0  0  0  0  0  0  0  0  0  0  0
  2  1  1  0
  3  2  1  0
  4  3  2  0
  5  3  1  0
  6  2  1  0
  7  2  1  0
M  CHG  2   3   1   5  -1
M  END
>  <_FileComments>  (4) 
Nitromethane

$$$$
Chloroethane
     RDKit          3D

  8  7  0  0  0  0  0  0  0  0999 V2000
   -0.8278   -0.8023    0.0000 Cl  0  0  0  0  0  0  0  0  0  0  0  0
    0.0002    0.8214    0.0000 C   0  0  0  0  0  0  0  0  0  0  0  0
    1.5123    0.6792    0.0000 C   0  0  0  0  0  0  0  0  0  0  0  0
   -0.3614    1.3418    0.8883 H   0  0  0  0  0  0  0  0  0  0  0  0
   -0.3614    1.3418   -0.8883 H   0  0  0  0  0  0  0  0  0  0  0  0
    1.9687    1.6765    0.0000 H   0  0  0  0  0  0  0  0  0  0  0  0
    1.8595    0.1424    0.8872 H   0  0  0  0  0  0  0  0  0  0  0  0
    1.8595    0.1424   -0.8872 H   0  0  0  0  0  0  0  0  0  0  0  0
  2  1  1  0
  3  2  1  0
  4  2  1  0
  5  2  1  0
  6  3  1  0
  7  3  1  0
  8  3  1  0
M  END
>  <_FileComments>  (5) 
Chloroethane

$$$$
1,1,1-Trichloroethane
     RDKit          3D

  8  7  0  0  0  0  0  0  0  0999 V2000
    0.0000    0.0000    0.2533 C   0  0  0  0  0  0  0  0  0  0  0  0
    0.0000    0.0000    1.7737 C   0  0  0  0  0  0  0  0  0  0  0  0
    0.0000    1.6969   -0.3656 Cl  0  0  0  0  0  0  0  0  0  0  0  0
    1.4696   -0.8485   -0.3656 Cl  0  0  0  0  0  0  0  0  0  0  0  0
   -1.4696   -0.8485   -0.3656 Cl  0  0  0  0  0  0  0  0  0  0  0  0
    0.0000   -1.0293    2.1387 H   0  0  0  0  0  0  0  0  0  0  0  0
    0.8914    0.5147    2.1387 H   0  0  0  0  0  0  0  0  0  0  0  0
   -0.8914    0.5147    2.1387 H   0  0  0  0  0  0  0  0  0  0  0  0
  2  1  1  0
  3  1  1  0
  4  1  1  0
  5  1  1  0
  6  2  1  0
  7  2  1  0
  8  2  1  0
M  END
>  <_FileComments>  (6) 
1,1,1-Trichloroethane

$$$$
Nitroethane
     RDKit          3D

 10  9  0  0  0  0  0  0  0  0999 V2000
   -0.2503   -1.8672    0.0000 C   0  0  0  0  0  0  0  0  0  0  0  0
    0.7027   -0.6879    0.0000 C   0  0  0  0  0  0  0  0  0  0  0  0
    0.0012    0.6595    0.0000 N   0  0  0  0  0  0  0  0  0  0  0  0
   -1.2257    0.6847    0.0000 O   0  0  0  0  0  0  0  0  0  0  0  0
    0.7315    1.6478    0.0000 O   0  0  0  0  0  0  0  0  0  0  0  0
    0.3402   -2.7890    0.0000 H   0  0  0  0  0  0  0  0  0  0  0  0
   -0.8903   -1.8654    0.8850 H   0  0  0  0  0  0  0  0  0  0  0  0
   -0.8903   -1.8654   -0.8850 H   0  0  0  0  0  0  0  0  0  0  0  0
    1.3467   -0.6562   -0.8822 H   0  0  0  0  0  0  0  0  0  0  0  0
    1.3467   -0.6562    0.8822 H   0  0  0  0  0  0  0  0  0  0  0  0
  2  1  1  0
  3  2  1  0
  4  3  2  0
  5  3  1  0
  6  1  1  0
  7  1  1  0
  8  1  1  0
  9  2  1  0
 10  2  1  0
M  CHG  2   3   1   5  -1
M  END
>  <_FileComments>  (7) 
Nitroethane

$$$$
Chlorodimethylsilane ((CH3)2SiHCl)
     RDKit          3D

 11 10  0  0  0  0  0  0  0  0999 V2000
    0.5654   -0.0277    0.0000 Si  0  0  0  0  0  4  0  0  0  0  0  0
   -1.1599    1.1729    0.0000 Cl  0  0  0  0  0  0  0  0  0  0  0  0
    1.7149    0.9118    0.0000 H   0  0  0  0  0  0  0  0  0  0  0  0
    0.5620   -1.0681    1.5626 C   0  0  0  0  0  0  0  0  0  0  0  0
    0.5620   -1.0681   -1.5626 C   0  0  0  0  0  0  0  0  0  0  0  0
   -0.3078   -1.7327    1.5924 H   0  0  0  0  0  0  0  0  0  0  0  0
    1.4663   -1.6870    1.6068 H   0  0  0  0  0  0  0  0  0  0  0  0
    0.5387   -0.4370    2.4564 H   0  0  0  0  0  0  0  0  0  0  0  0
   -0.3078   -1.7327   -1.5924 H   0  0  0  0  0  0  0  0  0  0  0  0
    1.4663   -1.6870   -1.6068 H   0  0  0  0  0  0  0  0  0  0  0  0
    0.5387   -0.4370   -2.4564 H   0  0  0  0  0  0  0  0  0  0  0  0
  2  1  1  0
  3  1  1  0
  4  1  1  0
  5  1  1  0
  6  4  1  0
  7  4  1  0
  8  4  1  0
  9  5  1  0
 10  5  1  0
 11  5  1  0
M  END
>  <_FileComments>  (8) 
Chlorodimethylsilane ((CH3)2SiHCl)

$$$$
1,1--Dichloroethylene
     RDKit          3D

  6  5  0  0  0  0  0  0  0  0999 V2000
    0.0000    0.0000    0.4243 C   0  0  0  0  0  0  0  0  0  0  0  0
    0.0000    0.0000    1.7551 C   0  0  0  0  0  0  0  0  0  0  0  0
    0.0000    1.4660   -0.5211 Cl  0  0  0  0  0  0  0  0  0  0  0  0
    0.0000   -1.4660   -0.5211 Cl  0  0  0  0  0  0  0  0  0  0  0  0
    0.0000   -0.9332    2.3055 H   0  0  0  0  0  0  0  0  0  0  0  0
    0.0000    0.9332    2.3055 H   0  0  0  0  0  0  0  0  0  0  0  0
  2  1  2  0
  3  1  1  0
  4  1  1  0
  5  2  1  0
  6  2  1  0
M  END
>  <_FileComments>  (9) 
1,1--Dichloroethylene

$$$$
trans-1,2-Dichloroethylene
     RDKit          3D

  6  5  0  0  0  0  0  0  0  0999 V2000
   -0.3672    0.5550    0.0000 C   0  0  0  0  0  0  0  0  0  0  0  0
    0.3672   -0.5550    0.0000 C   0  0  0  0  0  0  0  0  0  0  0  0
    0.3663    2.1365    0.0000 Cl  0  0  0  0  0  0  0  0  0  0  0  0
   -0.3663   -2.1365    0.0000 Cl  0  0  0  0  0  0  0  0  0  0  0  0
   -1.4502    0.5661    0.0000 H   0  0  0  0  0  0  0  0  0  0  0  0
    1.4502   -0.5661    0.0000 H   0  0  0  0  0  0  0  0  0  0  0  0
  2  1  2  0
  3  1  1  0
  4  2  1  0
  5  1  1  0
  6  2  1  0
M  END
>  <_FileComments>  (10) 
trans-1,2-Dichloroethylene

$$$$
Trichloroethylene
     RDKit          3D

  6  5  0  0  0  0  0  0  0  0999 V2000
    0.0001    0.4412    0.0000 C   0  0  0  0  0  0  0  0  0  0  0  0
   -1.0355   -0.4054    0.0000 C   0  0  0  0  0  0  0  0  0  0  0  0
   -0.2841    2.1607    0.0000 Cl  0  0  0  0  0  0  0  0  0  0  0  0
    1.6603   -0.0414    0.0000 Cl  0  0  0  0  0  0  0  0  0  0  0  0
   -0.8887   -2.1290    0.0000 Cl  0  0  0  0  0  0  0  0  0  0  0  0
   -2.0536   -0.0383    0.0000 H   0  0  0  0  0  0  0  0  0  0  0  0
  2  1  2  0
  3  1  1  0
  4  1  1  0
  5  2  1  0
  6  2  1  0
M  END
>  <_FileComments>  (11) 
Trichloroethylene

$$$$
Acetaldehyde
     RDKit          3D

  7  6  0  0  0  0  0  0  0  0999 V2000
    1.2067    0.3890    0.0000 O   0  0  0  0  0  0  0  0  0  0  0  0
   -0.0048    0.4621    0.0000 C   0  0  0  0  0  0  0  0  0  0  0  0
   -0.9339   -0.7221    0.0000 C   0  0  0  0  0  0  0  0  0  0  0  0
   -0.5010    1.4579    0.0000 H   0  0  0  0  0  0  0  0  0  0  0  0
   -0.3717   -1.6580    0.0000 H   0  0  0  0  0  0  0  0  0  0  0  0
   -1.5874   -0.6754    0.8804 H   0  0  0  0  0  0  0  0  0  0  0  0
   -1.5874   -0.6754   -0.8804 H   0  0  0  0  0  0  0  0  0  0  0  0
  2  1  2  0
  3  2  1  0
  4  2  1  0
  5  3  1  0
  6  3  1  0
  7  3  1  0
M  END
>  <_FileComments>  (12) 
Acetaldehyde

$$$$
Oxirane
     RDKit          3D

  7  7  0  0  0  0  0  0  0  0999 V2000
    0.0000    0.0000    0.8550 O   0  0  0  0  0  0  0  0  0  0  0  0
    0.0000    0.7350   -0.3769 C   0  0  0  0  0  0  0  0  0  0  0  0
    0.0000   -0.7350   -0.3769 C   0  0  0  0  0  0  0  0  0  0  0  0
   -0.9213    1.2742   -0.5925 H   0  0  0  0  0  0  0  0  0  0  0  0
    0.9213    1.2742   -0.5925 H   0  0  0  0  0  0  0  0  0  0  0  0
    0.9213   -1.2742   -0.5925 H   0  0  0  0  0  0  0  0  0  0  0  0
   -0.9213   -1.2742   -0.5925 H   0  0  0  0  0  0  0  0  0  0  0  0
  2  1  1  0
  3  2  1  0
  3  1  1  0
  4  2  1  0
  5  2  1  0
  6  3  1  0
  7  3  1  0
M  END
>  <_FileComments>  (13) 
Oxirane

$$$$
Dimethylsulfoxide
     RDKit          3D

 10  9  0  0  0  0  0  0  0  0999 V2000
    0.2676    0.4218    0.0000 S   0  0  0  0  0  0  0  0  0  0  0  0
   -1.0961    1.0916    0.0000 O   0  0  0  0  0  0  0  0  0  0  0  0
    0.2584   -0.8018    1.3695 C   0  0  0  0  0  0  0  0  0  0  0  0
    0.2584   -0.8018   -1.3695 C   0  0  0  0  0  0  0  0  0  0  0  0
    1.1775   -1.3942    1.3425 H   0  0  0  0  0  0  0  0  0  0  0  0
    0.2091   -0.2325    2.2995 H   0  0  0  0  0  0  0  0  0  0  0  0
   -0.6265   -1.4371    1.2766 H   0  0  0  0  0  0  0  0  0  0  0  0
    1.1775   -1.3942   -1.3425 H   0  0  0  0  0  0  0  0  0  0  0  0
    0.2091   -0.2325   -2.2995 H   0  0  0  0  0  0  0  0  0  0  0  0
   -0.6265   -1.4371   -1.2766 H   0  0  0  0  0  0  0  0  0  0  0  0
  2  1  1  0
  3  1  1  0
  4  1  1  0
  5  3  1  0
  6  3  1  0
  7  3  1  0
  8  4  1  0
  9  4  1  0
 10  4  1  0
M  CHG  2   1   1   2  -1
M  END
>  <_FileComments>  (14) 
Dimethylsulfoxide

$$$$
Thiirane
     RDKit          3D

  7  7  0  0  0  0  0  0  0  0999 V2000
    0.0000    0.0000    0.8736 S   0  0  0  0  0  0  0  0  0  0  0  0
    0.0000    0.7414   -0.8075 C   0  0  0  0  0  0  0  0  0  0  0  0
    0.0000   -0.7414   -0.8075 C   0  0  0  0  0  0  0  0  0  0  0  0
   -0.9149    1.2586   -1.0838 H   0  0  0  0  0  0  0  0  0  0  0  0
    0.9149    1.2586   -1.0838 H   0  0  0  0  0  0  0  0  0  0  0  0
    0.9149   -1.2586   -1.0838 H   0  0  0  0  0  0  0  0  0  0  0  0
   -0.9149   -1.2586   -1.0838 H   0  0  0  0  0  0  0  0  0  0  0  0
  2  1  1  0
  3  2  1  0
  3  1  1  0
  4  2  1  0
  5  2  1  0
  6  3  1  0
  7  3  1  0
M  END
>  <_FileComments>  (15) 
Thiirane

$$$$
Acetyl chloride
     RDKit          3D

  7  6  0  0  0  0  0  0  0  0999 V2000
    1.4929    0.7333    0.0000 C   0  0  0  0  0  0  0  0  0  0  0  0
    0.0031    0.5391    0.0000 C   0  0  0  0  0  0  0  0  0  0  0  0
   -0.8434    1.3750    0.0000 O   0  0  0  0  0  0  0  0  0  0  0  0
   -0.4607   -1.2302    0.0000 Cl  0  0  0  0  0  0  0  0  0  0  0  0
    1.7148    1.8017    0.0000 H   0  0  0  0  0  0  0  0  0  0  0  0
    1.9250    0.2527    0.8822 H   0  0  0  0  0  0  0  0  0  0  0  0
    1.9250    0.2527   -0.8822 H   0  0  0  0  0  0  0  0  0  0  0  0
  2  1  1  0
  3  2  2  0
  4  2  1  0
  5  1  1  0
  6  1  1  0
  7  1  1  0
M  END
>  <_FileComments>  (16) 
Acetyl chloride

$$$$
Acetonitrile
     RDKit          3D

  6  5  0  0  0  0  0  0  0  0999 V2000
    0.0000    0.0000   -1.1823 C   0  0  0  0  0  0  0  0  0  0  0  0
    0.0000    0.0000    0.2786 C   0  0  0  0  0  0  0  0  0  0  0  0
    0.0000    0.0000    1.4396 N   0  0  0  0  0  0  0  0  0  0  0  0
    0.0000    1.0266   -1.5595 H   0  0  0  0  0  0  0  0  0  0  0  0
    0.8890   -0.5133   -1.5595 H   0  0  0  0  0  0  0  0  0  0  0  0
   -0.8890   -0.5133   -1.5595 H   0  0  0  0  0  0  0  0  0  0  0  0
  2  1  1  0
  3  2  3  0
  4  1  1  0
  5  1  1  0
  6  1  1  0
M  END
>  <_FileComments>  (17) 
Acetonitrile

$$$$
Cyclopropane
     RDKit          3D

  9  9  0  0  0  0  0  0  0  0999 V2000
    0.0000    0.8720    0.0000 C   0  0  0  0  0  0  0  0  0  0  0  0
    0.7551   -0.4360    0.0000 C   0  0  0  0  0  0  0  0  0  0  0  0
   -0.7551   -0.4360    0.0000 C   0  0  0  0  0  0  0  0  0  0  0  0
    0.0000    1.4634    0.9111 H   0  0  0  0  0  0  0  0  0  0  0  0
    0.0000    1.4634   -0.9111 H   0  0  0  0  0  0  0  0  0  0  0  0
    1.2673   -0.7317    0.9111 H   0  0  0  0  0  0  0  0  0  0  0  0
    1.2673   -0.7317   -0.9111 H   0  0  0  0  0  0  0  0  0  0  0  0
   -1.2673   -0.7317    0.9111 H   0  0  0  0  0  0  0  0  0  0  0  0
   -1.2673   -0.7317   -0.9111 H   0  0  0  0  0  0  0  0  0  0  0  0
  2  1  1  0
  3  2  1  0
  3  1  1  0
  4  1  1  0
  5  1  1  0
  6  2  1  0
  7  2  1  0
  8  3  1  0
  9  3  1  0
M  END
>  <_FileComments>  (18) 
Cyclopropane

$$$$
2-Chloropropane
     RDKit          3D

 11 10  0  0  0  0  0  0  0  0999 V2000
   -0.8990    1.0302    0.0000 Cl  0  0  0  0  0  0  0  0  0  0  0  0
    0.5748   -0.0757    0.0000 C   0  0  0  0  0  0  0  0  0  0  0  0
    1.4191    0.6180    0.0000 H   0  0  0  0  0  0  0  0  0  0  0  0
    0.5757   -0.9091    1.2749 C   0  0  0  0  0  0  0  0  0  0  0  0
    0.5757   -0.9091   -1.2749 C   0  0  0  0  0  0  0  0  0  0  0  0
    1.4791   -1.5304    1.3009 H   0  0  0  0  0  0  0  0  0  0  0  0
    0.5676   -0.2757    2.1655 H   0  0  0  0  0  0  0  0  0  0  0  0
   -0.2968   -1.5688    1.3102 H   0  0  0  0  0  0  0  0  0  0  0  0
    1.4791   -1.5304   -1.3009 H   0  0  0  0  0  0  0  0  0  0  0  0
    0.5676   -0.2757   -2.1655 H   0  0  0  0  0  0  0  0  0  0  0  0
   -0.2968   -1.5688   -1.3102 H   0  0  0  0  0  0  0  0  0  0  0  0
  2  1  1  0
  3  2  1  0
  4  2  1  0
  5  2  1  0
  6  4  1  0
  7  4  1  0
  8  4  1  0
  9  5  1  0
 10  5  1  0
 11  5  1  0
M  END
>  <_FileComments>  (19) 
2-Chloropropane

$$$$
2-Chloropropene
     RDKit          3D

  9  8  0  0  0  0  0  0  0  0999 V2000
   -1.0293    1.3136    0.0000 C   0  0  0  0  0  0  0  0  0  0  0  0
    0.0009    0.4680    0.0000 C   0  0  0  0  0  0  0  0  0  0  0  0
    1.4558    0.8267    0.0000 C   0  0  0  0  0  0  0  0  0  0  0  0
   -0.3010   -1.2794    0.0000 Cl  0  0  0  0  0  0  0  0  0  0  0  0
   -2.0588    0.9758    0.0000 H   0  0  0  0  0  0  0  0  0  0  0  0
   -0.8442    2.3835    0.0000 H   0  0  0  0  0  0  0  0  0  0  0  0
    1.5743    1.9138    0.0000 H   0  0  0  0  0  0  0  0  0  0  0  0
    1.9585    0.4169    0.8829 H   0  0  0  0  0  0  0  0  0  0  0  0
    1.9585    0.4169   -0.8829 H   0  0  0  0  0  0  0  0  0  0  0  0
  2  1  2  0
  3  2  1  0
  4  2  1  0
  5  1  1  0
  6  1  1  0
  7  3  1  0
  8  3  1  0
  9  3  1  0
M  END
>  <_FileComments>  (20) 
2-Chloropropene

$$$$
Allyl chloride
     RDKit          3D

  9  8  0  0  0  0  0  0  0  0999 V2000
    2.2333   -0.2073   -0.3087 C   0  0  0  0  0  0  0  0  0  0  0  0
    1.1404   -0.1167    0.4548 C   0  0  0  0  0  0  0  0  0  0  0  0
   -0.0275    0.7502    0.1210 C   0  0  0  0  0  0  0  0  0  0  0  0
   -1.5540   -0.2417   -0.1089 Cl  0  0  0  0  0  0  0  0  0  0  0  0
    3.0760   -0.8280   -0.0204 H   0  0  0  0  0  0  0  0  0  0  0  0
    2.3227    0.3383   -1.2452 H   0  0  0  0  0  0  0  0  0  0  0  0
    1.0699   -0.6820    1.3822 H   0  0  0  0  0  0  0  0  0  0  0  0
   -0.2648    1.4472    0.9272 H   0  0  0  0  0  0  0  0  0  0  0  0
    0.1244    1.3023   -0.8072 H   0  0  0  0  0  0  0  0  0  0  0  0
  2  1  2  0
  3  2  1  0
  4  3  1  0
  5  1  1  0
  6  1  1  0
  7  2  1  0
  8  3  1  0
  9  3  1  0
M  END
>  <_FileComments>  (21) 
Allyl chloride

$$$$
Acetone
     RDKit          3D

 10  9  0  0  0  0  0  0  0  0999 V2000
    0.0000    0.0000    1.4007 O   0  0  0  0  0  0  0  0  0  0  0  0
    0.0000    0.0000    0.1818 C   0  0  0  0  0  0  0  0  0  0  0  0
    0.0000    1.2932   -0.6137 C   0  0  0  0  0  0  0  0  0  0  0  0
    0.0000   -1.2932   -0.6137 C   0  0  0  0  0  0  0  0  0  0  0  0
   -0.0956    2.1467    0.0593 H   0  0  0  0  0  0  0  0  0  0  0  0
    0.9346    1.3805   -1.1815 H   0  0  0  0  0  0  0  0  0  0  0  0
   -0.8175    1.2997   -1.3440 H   0  0  0  0  0  0  0  0  0  0  0  0
    0.0956   -2.1467    0.0593 H   0  0  0  0  0  0  0  0  0  0  0  0
   -0.9346   -1.3805   -1.1815 H   0  0  0  0  0  0  0  0  0  0  0  0
    0.8175   -1.2997   -1.3440 H   0  0  0  0  0  0  0  0  0  0  0  0
  2  1  2  0
  3  2  1  0
  4  2  1  0
  5  3  1  0
  6  3  1  0
  7  3  1  0
  8  4  1  0
  9  4  1  0
 10  4  1  0
M  END
>  <_FileComments>  (22) 
Acetone

$$$$
Oxetane
     RDKit          3D

 10 10  0  0  0  0  0  0  0  0999 V2000
    0.0000    0.0000    1.0725 O   0  0  0  0  0  0  0  0  0  0  0  0
    0.0000    0.0000   -1.0793 C   0  0  0  0  0  0  0  0  0  0  0  0
    0.0000    1.0406    0.0618 C   0  0  0  0  0  0  0  0  0  0  0  0
    0.0000   -1.0406    0.0618 C   0  0  0  0  0  0  0  0  0  0  0  0
    0.8906    0.0000   -1.7118 H   0  0  0  0  0  0  0  0  0  0  0  0
   -0.8906    0.0000   -1.7118 H   0  0  0  0  0  0  0  0  0  0  0  0
    0.8938    1.6717    0.1350 H   0  0  0  0  0  0  0  0  0  0  0  0
   -0.8938    1.6717    0.1350 H   0  0  0  0  0  0  0  0  0  0  0  0
    0.8938   -1.6717    0.1350 H   0  0  0  0  0  0  0  0  0  0  0  0
   -0.8938   -1.6717    0.1350 H   0  0  0  0  0  0  0  0  0  0  0  0
  3  2  1  0
  3  1  1  0
  4  2  1  0
  4  1  1  0
  5  2  1  0
  6  2  1  0
  7  3  1  0
  8  3  1  0
  9  4  1  0
 10  4  1  0
M  END
>  <_FileComments>  (23) 
Oxetane

$$$$
Methyl acetate Z
     RDKit          3D

 11 10  0  0  0  0  0  0  0  0999 V2000
   -1.1801    0.7726    0.0000 O   0  0  0  0  0  0  0  0  0  0  0  0
    0.0026    0.4995    0.0000 C   0  0  0  0  0  0  0  0  0  0  0  0
    1.1354    1.4957    0.0000 C   0  0  0  0  0  0  0  0  0  0  0  0
    0.4701   -0.7720    0.0000 O   0  0  0  0  0  0  0  0  0  0  0  0
   -0.5271   -1.8111    0.0000 C   0  0  0  0  0  0  0  0  0  0  0  0
    0.7288    2.5067    0.0000 H   0  0  0  0  0  0  0  0  0  0  0  0
    1.7656    1.3462    0.8819 H   0  0  0  0  0  0  0  0  0  0  0  0
    1.7656    1.3462   -0.8819 H   0  0  0  0  0  0  0  0  0  0  0  0
    0.0302   -2.7474    0.0000 H   0  0  0  0  0  0  0  0  0  0  0  0
   -1.1563   -1.7363    0.8903 H   0  0  0  0  0  0  0  0  0  0  0  0
   -1.1563   -1.7363   -0.8903 H   0  0  0  0  0  0  0  0  0  0  0  0
  2  1  2  0
  3  2  1  0
  4  2  1  0
  5  4  1  0
  6  3  1  0
  7  3  1  0
  8  3  1  0
  9  5  1  0
 10  5  1  0
 11  5  1  0
M  END
>  <_FileComments>  (24) 
Methyl acetate Z

$$$$
N,N-Dimethylformamide
     RDKit          3D

 12 11  0  0  0  0  0  0  0  0999 V2000
    0.2165   -1.9476    0.0000 O   0  0  0  0  0  0  0  0  0  0  0  0
    0.7023   -0.8236    0.0000 C   0  0  0  0  0  0  0  0  0  0  0  0
    0.0000    0.3458    0.0000 N   0  0  0  0  0  0  0  0  0  0  0  0
   -1.4551    0.3331    0.0000 C   0  0  0  0  0  0  0  0  0  0  0  0
    0.6656    1.6359    0.0000 C   0  0  0  0  0  0  0  0  0  0  0  0
    1.7955   -0.6559    0.0000 H   0  0  0  0  0  0  0  0  0  0  0  0
   -1.7906   -0.7041    0.0000 H   0  0  0  0  0  0  0  0  0  0  0  0
   -1.8438    0.8423    0.8906 H   0  0  0  0  0  0  0  0  0  0  0  0
   -1.8438    0.8423   -0.8906 H   0  0  0  0  0  0  0  0  0  0  0  0
    1.7490    1.4917    0.0000 H   0  0  0  0  0  0  0  0  0  0  0  0
    0.3934    2.2180   -0.8896 H   0  0  0  0  0  0  0  0  0  0  0  0
    0.3934    2.2180    0.8896 H   0  0  0  0  0  0  0  0  0  0  0  0
  2  1  2  0
  3  2  1  0
  4  3  1  0
  5  3  1  0
  6  2  1  0
  7  4  1  0
  8  4  1  0
  9  4  1  0
 10  5  1  0
 11  5  1  0
 12  5  1  0
M  END
>  <_FileComments>  (25) 
N,N-Dimethylformamide

$$$$
1,1,1-Trichloroacetone
     RDKit          3D

 10  9  0  0  0  0  0  0  0  0999 V2000
    1.1587    0.7034   -0.0506 C   0  0  0  0  0  0  0  0  0  0  0  0
    1.1912    1.9070   -0.1028 O   0  0  0  0  0  0  0  0  0  0  0  0
   -0.2341   -0.0339   -0.0026 C   0  0  0  0  0  0  0  0  0  0  0  0
    2.3970   -0.1643   -0.0356 C   0  0  0  0  0  0  0  0  0  0  0  0
   -1.5763    1.1026   -0.2410 Cl  0  0  0  0  0  0  0  0  0  0  0  0
   -0.2675   -1.3027   -1.2867 Cl  0  0  0  0  0  0  0  0  0  0  0  0
   -0.3674   -0.8113    1.6257 Cl  0  0  0  0  0  0  0  0  0  0  0  0
    3.1993    0.3981    0.4453 H   0  0  0  0  0  0  0  0  0  0  0  0
    2.2450   -1.1201    0.4669 H   0  0  0  0  0  0  0  0  0  0  0  0
    2.6906   -0.3664   -1.0715 H   0  0  0  0  0  0  0  0  0  0  0  0
  2  1  2  0
  3  1  1  0
  4  1  1  0
  5  3  1  0
  6  3  1  0
  7  3  1  0
  8  4  1  0
  9  4  1  0
 10  4  1  0
M  END
>  <_FileComments>  (26) 
1,1,1-Trichloroacetone

$$$$
Cyclopropanone
     RDKit          3D

  8  8  0  0  0  0  0  0  0  0999 V2000
    0.0000    0.0000    1.5853 O   0  0  0  0  0  0  0  0  0  0  0  0
    0.0000    0.0000    0.3800 C   0  0  0  0  0  0  0  0  0  0  0  0
    0.0000    0.7883   -0.8618 C   0  0  0  0  0  0  0  0  0  0  0  0
    0.0000   -0.7883   -0.8618 C   0  0  0  0  0  0  0  0  0  0  0  0
    0.9150    1.2936   -1.1651 H   0  0  0  0  0  0  0  0  0  0  0  0
   -0.9150    1.2936   -1.1651 H   0  0  0  0  0  0  0  0  0  0  0  0
   -0.9150   -1.2936   -1.1651 H   0  0  0  0  0  0  0  0  0  0  0  0
    0.9150   -1.2936   -1.1651 H   0  0  0  0  0  0  0  0  0  0  0  0
  2  1  2  0
  3  2  1  0
  4  3  1  0
  4  2  1  0
  5  3  1  0
  6  3  1  0
  7  4  1  0
  8  4  1  0
M  END
>  <_FileComments>  (27) 
Cyclopropanone

$$$$
Propionitrile
     RDKit          3D

  9  8  0  0  0  0  0  0  0  0999 V2000
   -1.3737   -1.4277    0.0000 N   0  0  0  0  0  0  0  0  0  0  0  0
   -0.7736   -0.4332    0.0000 C   0  0  0  0  0  0  0  0  0  0  0  0
    0.0006    0.8126    0.0000 C   0  0  0  0  0  0  0  0  0  0  0  0
    1.5213    0.5681    0.0000 C   0  0  0  0  0  0  0  0  0  0  0  0
   -0.2957    1.3952    0.8799 H   0  0  0  0  0  0  0  0  0  0  0  0
   -0.2957    1.3952   -0.8799 H   0  0  0  0  0  0  0  0  0  0  0  0
    2.0482    1.5265    0.0000 H   0  0  0  0  0  0  0  0  0  0  0  0
    1.8280    0.0055    0.8858 H   0  0  0  0  0  0  0  0  0  0  0  0
    1.8280    0.0055   -0.8858 H   0  0  0  0  0  0  0  0  0  0  0  0
  2  1  3  0
  3  2  1  0
  4  3  1  0
  5  3  1  0
  6  3  1  0
  7  4  1  0
  8  4  1  0
  9  4  1  0
M  END
>  <_FileComments>  (28) 
Propionitrile

$$$$
2-Chloropropanitrile
     RDKit          3D

  9  8  0  0  0  0  0  0  0  0999 V2000
    0.1035    1.7484   -0.1813 C   0  0  0  0  0  0  0  0  0  0  0  0
   -0.0265    0.3562    0.4387 C   0  0  1  0  0  0  0  0  0  0  0  0
   -1.2942   -0.2907    0.0932 C   0  0  0  0  0  0  0  0  0  0  0  0
   -2.3168   -0.7717   -0.1732 N   0  0  0  0  0  0  0  0  0  0  0  0
    1.3572   -0.7177   -0.0832 Cl  0  0  0  0  0  0  0  0  0  0  0  0
    1.0532    2.1965    0.1185 H   0  0  0  0  0  0  0  0  0  0  0  0
    0.0626    1.6925   -1.2712 H   0  0  0  0  0  0  0  0  0  0  0  0
   -0.7166    2.3821    0.1714 H   0  0  0  0  0  0  0  0  0  0  0  0
    0.0487    0.4059    1.5275 H   0  0  0  0  0  0  0  0  0  0  0  0
  2  1  1  0
  3  2  1  0
  4  3  3  0
  5  2  1  0
  6  1  1  0
  7  1  1  0
  8  1  1  0
  2  9  1  1
M  END
>  <_FileComments>  (29) 
2-Chloropropanitrile

$$$$
Isoxazole
     RDKit          3D

  8  8  0  0  0  0  0  0  0  0999 V2000
   -0.0011    1.1303    0.0000 C   0  0  0  0  0  0  0  0  0  0  0  0
    1.1277    0.3684    0.0000 C   0  0  0  0  0  0  0  0  0  0  0  0
    0.6190   -0.9630    0.0000 C   0  0  0  0  0  0  0  0  0  0  0  0
   -0.6934   -0.9959    0.0000 N   0  0  0  0  0  0  0  0  0  0  0  0
   -1.0945    0.3457    0.0000 O   0  0  0  0  0  0  0  0  0  0  0  0
   -0.1842    2.1950    0.0000 H   0  0  0  0  0  0  0  0  0  0  0  0
    2.1559    0.6952    0.0000 H   0  0  0  0  0  0  0  0  0  0  0  0
    1.1646   -1.8979    0.0000 H   0  0  0  0  0  0  0  0  0  0  0  0
  2  1  2  0
  3  2  1  0
  4  3  2  0
  5  4  1  0
  5  1  1  0
  6  1  1  0
  7  2  1  0
  8  3  1  0
M  END
>  <_FileComments>  (30) 
Isoxazole

$$$$
Isobutylene
     RDKit          3D

 12 11  0  0  0  0  0  0  0  0999 V2000
    0.0000    0.0000    0.1230 C   0  0  0  0  0  0  0  0  0  0  0  0
    0.0000    0.0000    1.4629 C   0  0  0  0  0  0  0  0  0  0  0  0
    0.0000    1.2777   -0.6802 C   0  0  0  0  0  0  0  0  0  0  0  0
    0.0000   -1.2777   -0.6802 C   0  0  0  0  0  0  0  0  0  0  0  0
    0.0000   -0.9250    2.0337 H   0  0  0  0  0  0  0  0  0  0  0  0
    0.0000    0.9250    2.0337 H   0  0  0  0  0  0  0  0  0  0  0  0
    0.0000    2.1628   -0.0378 H   0  0  0  0  0  0  0  0  0  0  0  0
    0.8800    1.3291   -1.3350 H   0  0  0  0  0  0  0  0  0  0  0  0
   -0.8800    1.3291   -1.3350 H   0  0  0  0  0  0  0  0  0  0  0  0
    0.0000   -2.1628   -0.0378 H   0  0  0  0  0  0  0  0  0  0  0  0
   -0.8800   -1.3291   -1.3350 H   0  0  0  0  0  0  0  0  0  0  0  0
    0.8800   -1.3291   -1.3350 H   0  0  0  0  0  0  0  0  0  0  0  0
  2  1  2  0
  3  1  1  0
  4  1  1  0
  5  2  1  0
  6  2  1  0
  7  3  1  0
  8  3  1  0
  9  3  1  0
 10  4  1  0
 11  4  1  0
 12  4  1  0
M  END
>  <_FileComments>  (31) 
Isobutylene

$$$$
Cyclobutane
     RDKit          3D

 12 12  0  0  0  0  0  0  0  0999 V2000
    0.0000    1.0848    0.1255 C   0  0  0  0  0  0  0  0  0  0  0  0
    1.0848    0.0000   -0.1255 C   0  0  0  0  0  0  0  0  0  0  0  0
    0.0000   -1.0848    0.1255 C   0  0  0  0  0  0  0  0  0  0  0  0
   -1.0848    0.0000   -0.1255 C   0  0  0  0  0  0  0  0  0  0  0  0
    0.0000    1.4218    1.1678 H   0  0  0  0  0  0  0  0  0  0  0  0
    1.4218    0.0000   -1.1678 H   0  0  0  0  0  0  0  0  0  0  0  0
    0.0000   -1.4218    1.1678 H   0  0  0  0  0  0  0  0  0  0  0  0
   -1.4218    0.0000   -1.1678 H   0  0  0  0  0  0  0  0  0  0  0  0
    0.0000    1.9669   -0.5229 H   0  0  0  0  0  0  0  0  0  0  0  0
    1.9669    0.0000    0.5229 H   0  0  0  0  0  0  0  0  0  0  0  0
    0.0000   -1.9669   -0.5229 H   0  0  0  0  0  0  0  0  0  0  0  0
   -1.9669    0.0000    0.5229 H   0  0  0  0  0  0  0  0  0  0  0  0
  2  1  1  0
  3  2  1  0
  4  3  1  0
  4  1  1  0
  5  1  1  0
  6  2  1  0
  7  3  1  0
  8  4  1  0
  9  1  1  0
 10  2  1  0
 11  3  1  0
 12  4  1  0
M  END
>  <_FileComments>  (32) 
Cyclobutane

$$$$
2-Butyne
     RDKit          3D

 10  9  0  0  0  0  0  0  0  0999 V2000
    0.0000    0.0000    0.6059 C   0  0  0  0  0  0  0  0  0  0  0  0
    0.0000    0.0000   -0.6059 C   0  0  0  0  0  0  0  0  0  0  0  0
    0.0000    0.0000    2.0683 C   0  0  0  0  0  0  0  0  0  0  0  0
    0.0000    0.0000   -2.0683 C   0  0  0  0  0  0  0  0  0  0  0  0
    0.0000    1.0216    2.4649 H   0  0  0  0  0  0  0  0  0  0  0  0
   -0.8848   -0.5108    2.4649 H   0  0  0  0  0  0  0  0  0  0  0  0
    0.8848   -0.5108    2.4649 H   0  0  0  0  0  0  0  0  0  0  0  0
    0.0000    1.0216   -2.4649 H   0  0  0  0  0  0  0  0  0  0  0  0
    0.8848   -0.5108   -2.4649 H   0  0  0  0  0  0  0  0  0  0  0  0
   -0.8848   -0.5108   -2.4649 H   0  0  0  0  0  0  0  0  0  0  0  0
  2  1  3  0
  3  1  1  0
  4  2  1  0
  5  3  1  0
  6  3  1  0
  7  3  1  0
  8  4  1  0
  9  4  1  0
 10  4  1  0
M  END
>  <_FileComments>  (33) 
2-Butyne

$$$$
Cyclobutene
     RDKit          3D

 10 10  0  0  0  0  0  0  0  0999 V2000
    0.0000    0.6717    0.8149 C   0  0  0  0  0  0  0  0  0  0  0  0
    0.0000   -0.6717    0.8149 C   0  0  0  0  0  0  0  0  0  0  0  0
    0.0000    0.7871   -0.7005 C   0  0  0  0  0  0  0  0  0  0  0  0
    0.0000   -0.7871   -0.7005 C   0  0  0  0  0  0  0  0  0  0  0  0
    0.0000    1.4207    1.6019 H   0  0  0  0  0  0  0  0  0  0  0  0
    0.0000   -1.4207    1.6019 H   0  0  0  0  0  0  0  0  0  0  0  0
   -0.8899    1.2476   -1.1459 H   0  0  0  0  0  0  0  0  0  0  0  0
    0.8899    1.2476   -1.1459 H   0  0  0  0  0  0  0  0  0  0  0  0
    0.8899   -1.2476   -1.1459 H   0  0  0  0  0  0  0  0  0  0  0  0
   -0.8899   -1.2476   -1.1459 H   0  0  0  0  0  0  0  0  0  0  0  0
  2  1  2  0
  3  1  1  0
  4  3  1  0
  4  2  1  0
  5  1  1  0
  6  2  1  0
  7  3  1  0
  8  3  1  0
  9  4  1  0
 10  4  1  0
M  END
>  <_FileComments>  (34) 
Cyclobutene

$$$$
Bicyclobutane
     RDKit          3D

 10 11  0  0  0  0  0  0  0  0999 V2000
    0.7473    0.0000   -0.3181 C   0  0  1  0  0  0  0  0  0  0  0  0
   -0.7473    0.0000   -0.3181 C   0  0  2  0  0  0  0  0  0  0  0  0
    0.0000    1.1385    0.3127 C   0  0  0  0  0  0  0  0  0  0  0  0
    0.0000   -1.1385    0.3127 C   0  0  0  0  0  0  0  0  0  0  0  0
    1.4319    0.0000   -1.1543 H   0  0  0  0  0  0  0  0  0  0  0  0
   -1.4319    0.0000   -1.1543 H   0  0  0  0  0  0  0  0  0  0  0  0
    0.0000    2.0866   -0.2235 H   0  0  0  0  0  0  0  0  0  0  0  0
    0.0000    1.2420    1.4014 H   0  0  0  0  0  0  0  0  0  0  0  0
    0.0000   -2.0866   -0.2235 H   0  0  0  0  0  0  0  0  0  0  0  0
    0.0000   -1.2420    1.4014 H   0  0  0  0  0  0  0  0  0  0  0  0
  2  1  1  0
  3  2  1  0
  3  1  1  0
  4  2  1  0
  4  1  1  0
  1  5  1  6
  2  6  1  6
  7  3  1  0
  8  3  1  0
  9  4  1  0
 10  4  1  0
M  END
>  <_FileComments>  (35) 
Bicyclobutane

$$$$
t-Butyl chloride
     RDKit          3D

 14 13  0  0  0  0  0  0  0  0999 V2000
    0.0000   -0.0008    1.4955 Cl  0  0  0  0  0  0  0  0  0  0  0  0
    0.0000   -0.0000   -0.3699 C   0  0  0  0  0  0  0  0  0  0  0  0
    0.0000    1.4621   -0.8170 C   0  0  0  0  0  0  0  0  0  0  0  0
    1.2659   -0.7309   -0.8179 C   0  0  0  0  0  0  0  0  0  0  0  0
   -1.2659   -0.7309   -0.8179 C   0  0  0  0  0  0  0  0  0  0  0  0
    0.0000    1.5054   -1.9132 H   0  0  0  0  0  0  0  0  0  0  0  0
   -0.8872    1.9867   -0.4522 H   0  0  0  0  0  0  0  0  0  0  0  0
    0.8872    1.9867   -0.4522 H   0  0  0  0  0  0  0  0  0  0  0  0
    1.3017   -0.7541   -1.9140 H   0  0  0  0  0  0  0  0  0  0  0  0
    2.1640   -0.2239   -0.4550 H   0  0  0  0  0  0  0  0  0  0  0  0
    1.2774   -1.7611   -0.4518 H   0  0  0  0  0  0  0  0  0  0  0  0
   -1.3017   -0.7541   -1.9140 H   0  0  0  0  0  0  0  0  0  0  0  0
   -1.2774   -1.7611   -0.4518 H   0  0  0  0  0  0  0  0  0  0  0  0
   -2.1640   -0.2239   -0.4550 H   0  0  0  0  0  0  0  0  0  0  0  0
  2  1  1  0
  3  2  1  0
  4  2  1  0
  5  2  1  0
  6  3  1  0
  7  3  1  0
  8  3  1  0
  9  4  1  0
 10  4  1  0
 11  4  1  0
 12  5  1  0
 13  5  1  0
 14  5  1  0
M  END
>  <_FileComments>  (36) 
t-Butyl chloride

$$$$
2-Methyl-2-nitropropane
     RDKit          3D

 16 15  0  0  0  0  0  0  0  0999 V2000
   -0.1502   -0.9812    0.0000 N   0  0  0  0  0  0  0  0  0  0  0  0
    0.0646    0.5585    0.0000 C   0  0  0  0  0  0  0  0  0  0  0  0
   -1.2971    1.2498    0.0000 C   0  0  0  0  0  0  0  0  0  0  0  0
    0.8665    0.8775    1.2701 C   0  0  0  0  0  0  0  0  0  0  0  0
    0.8665    0.8775   -1.2701 C   0  0  0  0  0  0  0  0  0  0  0  0
   -1.2983   -1.4167    0.0000 O   0  0  0  0  0  0  0  0  0  0  0  0
    0.8608   -1.6809    0.0000 O   0  0  0  0  0  0  0  0  0  0  0  0
   -1.1326    2.3320    0.0000 H   0  0  0  0  0  0  0  0  0  0  0  0
   -1.8821    0.9887   -0.8847 H   0  0  0  0  0  0  0  0  0  0  0  0
   -1.8821    0.9887    0.8847 H   0  0  0  0  0  0  0  0  0  0  0  0
    1.0541    1.9547    1.3071 H   0  0  0  0  0  0  0  0  0  0  0  0
    0.3088    0.5978    2.1693 H   0  0  0  0  0  0  0  0  0  0  0  0
    1.8243    0.3535    1.2714 H   0  0  0  0  0  0  0  0  0  0  0  0
    1.0541    1.9547   -1.3071 H   0  0  0  0  0  0  0  0  0  0  0  0
    0.3088    0.5978   -2.1693 H   0  0  0  0  0  0  0  0  0  0  0  0
    1.8243    0.3535   -1.2714 H   0  0  0  0  0  0  0  0  0  0  0  0
  2  1  1  0
  3  2  1  0
  4  2  1  0
  5  2  1  0
  6  1  2  0
  7  1  1  0
  8  3  1  0
  9  3  1  0
 10  3  1  0
 11  4  1  0
 12  4  1  0
 13  4  1  0
 14  5  1  0
 15  5  1  0
 16  5  1  0
M  CHG  2   1   1   7  -1
M  END
>  <_FileComments>  (37) 
2-Methyl-2-nitropropane

$$$$
1-Chloro-2-methyl-1-propene
     RDKit          3D

 12 11  0  0  0  0  0  0  0  0999 V2000
   -0.0010    0.7836    0.0000 C   0  0  0  0  0  0  0  0  0  0  0  0
    0.8066   -0.2828    0.0000 C   0  0  0  0  0  0  0  0  0  0  0  0
    2.3019   -0.0674    0.0000 C   0  0  0  0  0  0  0  0  0  0  0  0
    0.3420   -1.7134    0.0000 C   0  0  0  0  0  0  0  0  0  0  0  0
   -1.7581    0.7183    0.0000 Cl  0  0  0  0  0  0  0  0  0  0  0  0
    0.3621    1.8043    0.0000 H   0  0  0  0  0  0  0  0  0  0  0  0
    2.5678    0.9933    0.0000 H   0  0  0  0  0  0  0  0  0  0  0  0
    2.7595   -0.5343    0.8816 H   0  0  0  0  0  0  0  0  0  0  0  0
    2.7595   -0.5343   -0.8816 H   0  0  0  0  0  0  0  0  0  0  0  0
   -0.7455   -1.7987    0.0000 H   0  0  0  0  0  0  0  0  0  0  0  0
    0.7317   -2.2399   -0.8807 H   0  0  0  0  0  0  0  0  0  0  0  0
    0.7317   -2.2399    0.8807 H   0  0  0  0  0  0  0  0  0  0  0  0
  2  1  2  0
  3  2  1  0
  4  2  1  0
  5  1  1  0
  6  1  1  0
  7  3  1  0
  8  3  1  0
  9  3  1  0
 10  4  1  0
 11  4  1  0
 12  4  1  0
M  END
>  <_FileComments>  (38) 
1-Chloro-2-methyl-1-propene

$$$$
THF
     RDKit          3D

 13 13  0  0  0  0  0  0  0  0999 V2000
    0.0000    0.0000    1.2521 O   0  0  0  0  0  0  0  0  0  0  0  0
   -0.0017    1.1781    0.4292 C   0  0  0  0  0  0  0  0  0  0  0  0
    0.0017   -1.1781    0.4292 C   0  0  0  0  0  0  0  0  0  0  0  0
   -0.3069    0.7047   -0.9977 C   0  0  0  0  0  0  0  0  0  0  0  0
    0.3069   -0.7047   -0.9977 C   0  0  0  0  0  0  0  0  0  0  0  0
   -0.7477    1.8753    0.8251 H   0  0  0  0  0  0  0  0  0  0  0  0
    0.7477   -1.8753    0.8251 H   0  0  0  0  0  0  0  0  0  0  0  0
    0.9864    1.6578    0.4879 H   0  0  0  0  0  0  0  0  0  0  0  0
   -0.9864   -1.6578    0.4879 H   0  0  0  0  0  0  0  0  0  0  0  0
   -1.3896    0.6488   -1.1601 H   0  0  0  0  0  0  0  0  0  0  0  0
    1.3896   -0.6488   -1.1601 H   0  0  0  0  0  0  0  0  0  0  0  0
    0.1175    1.3642   -1.7605 H   0  0  0  0  0  0  0  0  0  0  0  0
   -0.1175   -1.3642   -1.7605 H   0  0  0  0  0  0  0  0  0  0  0  0
  2  1  1  0
  3  1  1  0
  4  2  1  0
  5  4  1  0
  5  3  1  0
  6  2  1  0
  7  3  1  0
  8  2  1  0
  9  3  1  0
 10  4  1  0
 11  5  1  0
 12  4  1  0
 13  5  1  0
M  END
>  <_FileComments>  (39) 
THF

$$$$
N,N-Dimethylacetamide ((Me)2NCOCH3))
     RDKit          3D

 15 14  0  0  0  0  0  0  0  0999 V2000
    1.0730   -1.4723    0.0001 O   0  0  0  0  0  0  0  0  0  0  0  0
    0.7303   -0.2893   -0.0000 C   0  0  0  0  0  0  0  0  0  0  0  0
   -0.5941    0.0812   -0.0002 N   0  0  0  0  0  0  0  0  0  0  0  0
   -1.6261   -0.9479   -0.0000 C   0  0  0  0  0  0  0  0  0  0  0  0
   -1.0830    1.4507    0.0001 C   0  0  0  0  0  0  0  0  0  0  0  0
    1.7800    0.8150   -0.0000 C   0  0  0  0  0  0  0  0  0  0  0  0
   -1.1462   -1.9251   -0.0004 H   0  0  0  0  0  0  0  0  0  0  0  0
   -2.2608   -0.8524    0.8904 H   0  0  0  0  0  0  0  0  0  0  0  0
   -2.2615   -0.8520   -0.8899 H   0  0  0  0  0  0  0  0  0  0  0  0
   -0.2629    2.1656   -0.0008 H   0  0  0  0  0  0  0  0  0  0  0  0
   -1.7027    1.6377   -0.8873 H   0  0  0  0  0  0  0  0  0  0  0  0
   -1.7010    1.6380    0.8886 H   0  0  0  0  0  0  0  0  0  0  0  0
    2.7555    0.3295    0.0000 H   0  0  0  0  0  0  0  0  0  0  0  0
    1.7027    1.4539   -0.8862 H   0  0  0  0  0  0  0  0  0  0  0  0
    1.7026    1.4540    0.8861 H   0  0  0  0  0  0  0  0  0  0  0  0
  2  1  2  0
  3  2  1  0
  4  3  1  0
  5  3  1  0
  6  2  1  0
  7  4  1  0
  8  4  1  0
  9  4  1  0
 10  5  1  0
 11  5  1  0
 12  5  1  0
 13  6  1  0
 14  6  1  0
 15  6  1  0
M  END
>  <_FileComments>  (40) 
N,N-Dimethylacetamide ((Me)2NCOCH3))

$$$$
Cyclobutanone
     RDKit          3D

 11 11  0  0  0  0  0  0  0  0999 V2000
    0.0000    0.0000    1.8809 O   0  0  0  0  0  0  0  0  0  0  0  0
    0.0000    0.0000    0.6747 C   0  0  0  0  0  0  0  0  0  0  0  0
    0.0000    1.1113   -0.3860 C   0  0  0  0  0  0  0  0  0  0  0  0
    0.0000   -1.1113   -0.3860 C   0  0  0  0  0  0  0  0  0  0  0  0
    0.0000    0.0000   -1.4831 C   0  0  0  0  0  0  0  0  0  0  0  0
   -0.8876    1.7523   -0.3470 H   0  0  0  0  0  0  0  0  0  0  0  0
    0.8876    1.7523   -0.3470 H   0  0  0  0  0  0  0  0  0  0  0  0
   -0.8876   -1.7523   -0.3470 H   0  0  0  0  0  0  0  0  0  0  0  0
    0.8876   -1.7523   -0.3470 H   0  0  0  0  0  0  0  0  0  0  0  0
   -0.8873    0.0000   -2.1200 H   0  0  0  0  0  0  0  0  0  0  0  0
    0.8873    0.0000   -2.1200 H   0  0  0  0  0  0  0  0  0  0  0  0
  2  1  2  0
  3  2  1  0
  4  2  1  0
  5  4  1  0
  5  3  1  0
  6  3  1  0
  7  3  1  0
  8  4  1  0
  9  4  1  0
 10  5  1  0
 11  5  1  0
M  END
>  <_FileComments>  (41) 
Cyclobutanone

$$$$
gamma-Butyrolactone (C4H6O2)
     RDKit          3D

 12 12  0  0  0  0  0  0  0  0999 V2000
    0.8885   -0.0005    0.0075 C   0  0  0  0  0  0  0  0  0  0  0  0
   -0.0263    1.2097    0.1652 C   0  0  0  0  0  0  0  0  0  0  0  0
   -1.4090    0.6696   -0.2171 C   0  0  0  0  0  0  0  0  0  0  0  0
   -1.2739   -0.8234    0.1252 C   0  0  0  0  0  0  0  0  0  0  0  0
    0.1288   -1.1343   -0.0441 O   0  0  0  0  0  0  0  0  0  0  0  0
    2.0916   -0.0276   -0.0600 O   0  0  0  0  0  0  0  0  0  0  0  0
    0.0197    1.5283    1.2140 H   0  0  0  0  0  0  0  0  0  0  0  0
    0.3354    2.0371   -0.4478 H   0  0  0  0  0  0  0  0  0  0  0  0
   -2.2340    1.1439    0.3202 H   0  0  0  0  0  0  0  0  0  0  0  0
   -1.5847    0.7964   -1.2903 H   0  0  0  0  0  0  0  0  0  0  0  0
   -1.5466   -1.0372    1.1654 H   0  0  0  0  0  0  0  0  0  0  0  0
   -1.8371   -1.4862   -0.5341 H   0  0  0  0  0  0  0  0  0  0  0  0
  2  1  1  0
  3  2  1  0
  4  3  1  0
  5  4  1  0
  5  1  1  0
  6  1  2  0
  7  2  1  0
  8  2  1  0
  9  3  1  0
 10  3  1  0
 11  4  1  0
 12  4  1  0
M  END
>  <_FileComments>  (42) 
gamma-Butyrolactone (C4H6O2)

$$$$
2-Methyl-2-cyanopropane
     RDKit          3D

 12 11  0  0  0  0  0  0  0  0999 V2000
   -0.3989   -2.1888    0.0000 N   0  0  0  0  0  0  0  0  0  0  0  0
   -0.0257   -1.0883    0.0000 C   0  0  0  0  0  0  0  0  0  0  0  0
    0.4363    0.3102    0.0000 C   0  0  0  0  0  0  0  0  0  0  0  0
   -0.0280    1.0330    1.2809 C   0  0  0  0  0  0  0  0  0  0  0  0
   -0.0280    1.0330   -1.2809 C   0  0  0  0  0  0  0  0  0  0  0  0
    1.5338    0.2712    0.0000 H   0  0  0  0  0  0  0  0  0  0  0  0
    0.3241    0.5177    2.1787 H   0  0  0  0  0  0  0  0  0  0  0  0
    0.3679    2.0532    1.2891 H   0  0  0  0  0  0  0  0  0  0  0  0
   -1.1202    1.0866    1.3215 H   0  0  0  0  0  0  0  0  0  0  0  0
    0.3241    0.5177   -2.1787 H   0  0  0  0  0  0  0  0  0  0  0  0
    0.3679    2.0532   -1.2891 H   0  0  0  0  0  0  0  0  0  0  0  0
   -1.1202    1.0866   -1.3215 H   0  0  0  0  0  0  0  0  0  0  0  0
  2  1  3  0
  3  2  1  0
  4  3  1  0
  5  3  1  0
  6  3  1  0
  7  4  1  0
  8  4  1  0
  9  4  1  0
 10  5  1  0
 11  5  1  0
 12  5  1  0
M  END
>  <_FileComments>  (43) 
2-Methyl-2-cyanopropane

$$$$
Furan
     RDKit          3D

  9  9  0  0  0  0  0  0  0  0999 V2000
    0.0000    0.0000    1.1615 O   0  0  0  0  0  0  0  0  0  0  0  0
    0.0000    1.0975    0.3486 C   0  0  0  0  0  0  0  0  0  0  0  0
    0.0000   -1.0975    0.3486 C   0  0  0  0  0  0  0  0  0  0  0  0
    0.0000    0.7185   -0.9604 C   0  0  0  0  0  0  0  0  0  0  0  0
    0.0000   -0.7185   -0.9604 C   0  0  0  0  0  0  0  0  0  0  0  0
    0.0000    2.0529    0.8492 H   0  0  0  0  0  0  0  0  0  0  0  0
    0.0000   -2.0529    0.8492 H   0  0  0  0  0  0  0  0  0  0  0  0
    0.0000    1.3749   -1.8188 H   0  0  0  0  0  0  0  0  0  0  0  0
    0.0000   -1.3749   -1.8188 H   0  0  0  0  0  0  0  0  0  0  0  0
  2  1  1  0
  3  1  1  0
  4  2  2  0
  5  4  1  0
  5  3  2  0
  6  2  1  0
  7  3  1  0
  8  4  1  0
  9  5  1  0
M  END
>  <_FileComments>  (44) 
Furan

$$$$
3-Butyn-2-one
     RDKit          3D

  9  8  0  0  0  0  0  0  0  0999 V2000
    1.4965    0.7440    0.0000 C   0  0  0  0  0  0  0  0  0  0  0  0
    0.0054    0.4919    0.0000 C   0  0  0  0  0  0  0  0  0  0  0  0
   -0.8229    1.3885    0.0000 O   0  0  0  0  0  0  0  0  0  0  0  0
   -0.4091   -0.9073    0.0000 C   0  0  0  0  0  0  0  0  0  0  0  0
   -0.7444   -2.0715    0.0000 C   0  0  0  0  0  0  0  0  0  0  0  0
    1.6839    1.8190    0.0000 H   0  0  0  0  0  0  0  0  0  0  0  0
    1.9554    0.2818    0.8814 H   0  0  0  0  0  0  0  0  0  0  0  0
    1.9554    0.2818   -0.8814 H   0  0  0  0  0  0  0  0  0  0  0  0
   -1.0607   -3.0909    0.0000 H   0  0  0  0  0  0  0  0  0  0  0  0
  2  1  1  0
  3  2  2  0
  4  2  1  0
  5  4  3  0
  6  1  1  0
  7  1  1  0
  8  1  1  0
  9  5  1  0
M  END
>  <_FileComments>  (45) 
3-Butyn-2-one

$$$$
Thiophene
     RDKit          3D

  9  9  0  0  0  0  0  0  0  0999 V2000
    0.0000    0.0000    1.2008 S   0  0  0  0  0  0  0  0  0  0  0  0
    0.0000    1.2435   -0.0105 C   0  0  0  0  0  0  0  0  0  0  0  0
    0.0000   -1.2435   -0.0105 C   0  0  0  0  0  0  0  0  0  0  0  0
    0.0000    0.7154   -1.2747 C   0  0  0  0  0  0  0  0  0  0  0  0
    0.0000   -0.7154   -1.2747 C   0  0  0  0  0  0  0  0  0  0  0  0
    0.0000    2.2844    0.2825 H   0  0  0  0  0  0  0  0  0  0  0  0
    0.0000   -2.2844    0.2825 H   0  0  0  0  0  0  0  0  0  0  0  0
    0.0000    1.3213   -2.1738 H   0  0  0  0  0  0  0  0  0  0  0  0
    0.0000   -1.3213   -2.1738 H   0  0  0  0  0  0  0  0  0  0  0  0
  2  1  1  0
  3  1  1  0
  4  2  2  0
  5  4  1  0
  5  3  2  0
  6  2  1  0
  7  3  1  0
  8  4  1  0
  9  5  1  0
M  END
>  <_FileComments>  (46) 
Thiophene

$$$$
2,3-Dichloro-2,3-dehydrobutyrolactone
     RDKit          3D

 10 10  0  0  0  0  0  0  0  0999 V2000
    1.4834    0.6505    0.0000 C   0  0  0  0  0  0  0  0  0  0  0  0
    0.0004    0.4868    0.0000 C   0  0  0  0  0  0  0  0  0  0  0  0
   -0.2803   -0.8237    0.0000 C   0  0  0  0  0  0  0  0  0  0  0  0
    1.0015   -1.6071    0.0000 C   0  0  0  0  0  0  0  0  0  0  0  0
    2.0333   -0.6106    0.0000 O   0  0  0  0  0  0  0  0  0  0  0  0
    2.1401    1.6562    0.0000 O   0  0  0  0  0  0  0  0  0  0  0  0
   -1.0645    1.8253    0.0000 Cl  0  0  0  0  0  0  0  0  0  0  0  0
   -1.8098   -1.5983    0.0000 Cl  0  0  0  0  0  0  0  0  0  0  0  0
    1.1077   -2.2329    0.8929 H   0  0  0  0  0  0  0  0  0  0  0  0
    1.1077   -2.2329   -0.8929 H   0  0  0  0  0  0  0  0  0  0  0  0
  2  1  1  0
  3  2  2  0
  4  3  1  0
  5  4  1  0
  5  1  1  0
  6  1  2  0
  7  2  1  0
  8  3  1  0
  9  4  1  0
 10  4  1  0
M  END
>  <_FileComments>  (47) 
2,3-Dichloro-2,3-dehydrobutyrolactone

$$$$
Methylthiazole
     RDKit          3D

 11 11  0  0  0  0  0  0  0  0999 V2000
    1.2415    0.3416    0.0000 N   0  0  0  0  0  0  0  0  0  0  0  0
    1.1268   -0.9538    0.0000 C   0  0  0  0  0  0  0  0  0  0  0  0
   -0.5134   -1.5543    0.0000 S   0  0  0  0  0  0  0  0  0  0  0  0
   -1.0635    0.0911    0.0000 C   0  0  0  0  0  0  0  0  0  0  0  0
   -0.0000    0.9558    0.0000 C   0  0  0  0  0  0  0  0  0  0  0  0
   -0.0735    2.4540    0.0000 C   0  0  0  0  0  0  0  0  0  0  0  0
    1.9665   -1.6385    0.0000 H   0  0  0  0  0  0  0  0  0  0  0  0
   -2.1182    0.3278    0.0000 H   0  0  0  0  0  0  0  0  0  0  0  0
   -1.1104    2.7995    0.0000 H   0  0  0  0  0  0  0  0  0  0  0  0
    0.4302    2.8633    0.8823 H   0  0  0  0  0  0  0  0  0  0  0  0
    0.4302    2.8633   -0.8823 H   0  0  0  0  0  0  0  0  0  0  0  0
  2  1  2  0
  3  2  1  0
  4  3  1  0
  5  4  2  0
  5  1  1  0
  6  5  1  0
  7  2  1  0
  8  4  1  0
  9  6  1  0
 10  6  1  0
 11  6  1  0
M  END
>  <_FileComments>  (48) 
Methylthiazole

$$$$
Pyrimidine
     RDKit          3D

 10 10  0  0  0  0  0  0  0  0999 V2000
    0.0000    0.0000   -2.3998 H   0  0  0  0  0  0  0  0  0  0  0  0
    0.0000    0.0000   -1.3125 C   0  0  0  0  0  0  0  0  0  0  0  0
    0.0000    1.1983   -0.7159 N   0  0  0  0  0  0  0  0  0  0  0  0
    0.0000   -1.1983   -0.7159 N   0  0  0  0  0  0  0  0  0  0  0  0
    0.0000    1.1861    0.6238 C   0  0  0  0  0  0  0  0  0  0  0  0
    0.0000   -1.1861    0.6238 C   0  0  0  0  0  0  0  0  0  0  0  0
    0.0000    0.0000    1.3574 C   0  0  0  0  0  0  0  0  0  0  0  0
    0.0000    2.1557    1.1175 H   0  0  0  0  0  0  0  0  0  0  0  0
    0.0000   -2.1557    1.1175 H   0  0  0  0  0  0  0  0  0  0  0  0
    0.0000    0.0000    2.4423 H   0  0  0  0  0  0  0  0  0  0  0  0
  2  1  1  0
  3  2  2  0
  4  2  1  0
  5  3  1  0
  6  4  2  0
  7  6  1  0
  7  5  2  0
  8  5  1  0
  9  6  1  0
 10  7  1  0
M  END
>  <_FileComments>  (49) 
Pyrimidine

$$$$
1,4-Pyrazine
     RDKit          3D

 10 10  0  0  0  0  0  0  0  0999 V2000
    0.0000    0.0000    1.4090 N   0  0  0  0  0  0  0  0  0  0  0  0
    0.0000    0.0000   -1.4090 N   0  0  0  0  0  0  0  0  0  0  0  0
    0.0000    1.1350    0.6992 C   0  0  0  0  0  0  0  0  0  0  0  0
    0.0000   -1.1350    0.6992 C   0  0  0  0  0  0  0  0  0  0  0  0
    0.0000    1.1350   -0.6992 C   0  0  0  0  0  0  0  0  0  0  0  0
    0.0000   -1.1350   -0.6992 C   0  0  0  0  0  0  0  0  0  0  0  0
    0.0000    2.0685    1.2571 H   0  0  0  0  0  0  0  0  0  0  0  0
    0.0000   -2.0685    1.2571 H   0  0  0  0  0  0  0  0  0  0  0  0
    0.0000    2.0685   -1.2571 H   0  0  0  0  0  0  0  0  0  0  0  0
    0.0000   -2.0685   -1.2571 H   0  0  0  0  0  0  0  0  0  0  0  0
  3  1  2  0
  4  1  1  0
  5  3  1  0
  5  2  2  0
  6  4  2  0
  6  2  1  0
  7  3  1  0
  8  4  1  0
  9  5  1  0
 10  6  1  0
M  END
>  <_FileComments>  (50) 
1,4-Pyrazine

$$$$
1,2-Pyrazine
     RDKit          3D

 10 10  0  0  0  0  0  0  0  0999 V2000
    0.0000    0.6926    1.1815 C   0  0  0  0  0  0  0  0  0  0  0  0
    0.0000   -0.6926    1.1815 C   0  0  0  0  0  0  0  0  0  0  0  0
    0.0000    1.3252   -0.0675 C   0  0  0  0  0  0  0  0  0  0  0  0
    0.0000   -1.3252   -0.0675 C   0  0  0  0  0  0  0  0  0  0  0  0
    0.0000    0.6675   -1.2317 N   0  0  0  0  0  0  0  0  0  0  0  0
    0.0000   -0.6675   -1.2317 N   0  0  0  0  0  0  0  0  0  0  0  0
    0.0000    1.2724    2.0993 H   0  0  0  0  0  0  0  0  0  0  0  0
    0.0000   -1.2724    2.0993 H   0  0  0  0  0  0  0  0  0  0  0  0
    0.0000    2.4083   -0.1537 H   0  0  0  0  0  0  0  0  0  0  0  0
    0.0000   -2.4083   -0.1537 H   0  0  0  0  0  0  0  0  0  0  0  0
  2  1  1  0
  3  1  2  0
  4  2  2  0
  5  3  1  0
  6  5  2  0
  6  4  1  0
  7  1  1  0
  8  2  1  0
  9  3  1  0
 10  4  1  0
M  END
>  <_FileComments>  (51) 
1,2-Pyrazine

$$$$
Cyclopentane
     RDKit          3D

 15 15  0  0  0  0  0  0  0  0999 V2000
    0.0000    0.0000    1.3091 C   0  0  0  0  0  0  0  0  0  0  0  0
   -0.0009    1.2439    0.3724 C   0  0  0  0  0  0  0  0  0  0  0  0
    0.0009   -1.2439    0.3724 C   0  0  0  0  0  0  0  0  0  0  0  0
   -0.3267    0.6960   -1.0319 C   0  0  0  0  0  0  0  0  0  0  0  0
    0.3267   -0.6960   -1.0319 C   0  0  0  0  0  0  0  0  0  0  0  0
    0.8774    0.0067    1.9645 H   0  0  0  0  0  0  0  0  0  0  0  0
   -0.8774   -0.0067    1.9645 H   0  0  0  0  0  0  0  0  0  0  0  0
   -0.7054    2.0162    0.6987 H   0  0  0  0  0  0  0  0  0  0  0  0
    0.9938    1.7061    0.3613 H   0  0  0  0  0  0  0  0  0  0  0  0
    0.7054   -2.0162    0.6987 H   0  0  0  0  0  0  0  0  0  0  0  0
   -0.9938   -1.7061    0.3613 H   0  0  0  0  0  0  0  0  0  0  0  0
   -1.4134    0.5925   -1.1561 H   0  0  0  0  0  0  0  0  0  0  0  0
    0.0324    1.3457   -1.8376 H   0  0  0  0  0  0  0  0  0  0  0  0
    1.4134   -0.5925   -1.1561 H   0  0  0  0  0  0  0  0  0  0  0  0
   -0.0324   -1.3457   -1.8376 H   0  0  0  0  0  0  0  0  0  0  0  0
  2  1  1  0
  3  1  1  0
  4  2  1  0
  5  4  1  0
  5  3  1  0
  6  1  1  0
  7  1  1  0
  8  2  1  0
  9  2  1  0
 10  3  1  0
 11  3  1  0
 12  4  1  0
 13  4  1  0
 14  5  1  0
 15  5  1  0
M  END
>  <_FileComments>  (52) 
Cyclopentane

$$$$
2-Methyl-2-butene
     RDKit          3D

 15 14  0  0  0  0  0  0  0  0999 V2000
   -1.5067    0.5019    0.0000 C   0  0  0  0  0  0  0  0  0  0  0  0
    0.0025    0.4520    0.0000 C   0  0  0  0  0  0  0  0  0  0  0  0
    0.7351   -0.6752    0.0000 C   0  0  0  0  0  0  0  0  0  0  0  0
    0.2595   -2.1023    0.0000 C   0  0  0  0  0  0  0  0  0  0  0  0
    0.6697    1.8086    0.0000 C   0  0  0  0  0  0  0  0  0  0  0  0
   -1.9733   -0.4849    0.0000 H   0  0  0  0  0  0  0  0  0  0  0  0
   -1.8741    1.0474    0.8797 H   0  0  0  0  0  0  0  0  0  0  0  0
   -1.8741    1.0474   -0.8797 H   0  0  0  0  0  0  0  0  0  0  0  0
    1.8200   -0.5592    0.0000 H   0  0  0  0  0  0  0  0  0  0  0  0
   -0.8293   -2.1933    0.0000 H   0  0  0  0  0  0  0  0  0  0  0  0
    0.6381   -2.6392   -0.8797 H   0  0  0  0  0  0  0  0  0  0  0  0
    0.6381   -2.6392    0.8797 H   0  0  0  0  0  0  0  0  0  0  0  0
    1.7606    1.7265    0.0000 H   0  0  0  0  0  0  0  0  0  0  0  0
    0.3721    2.3948   -0.8801 H   0  0  0  0  0  0  0  0  0  0  0  0
    0.3721    2.3948    0.8801 H   0  0  0  0  0  0  0  0  0  0  0  0
  2  1  1  0
  3  2  2  0
  4  3  1  0
  5  2  1  0
  6  1  1  0
  7  1  1  0
  8  1  1  0
  9  3  1  0
 10  4  1  0
 11  4  1  0
 12  4  1  0
 13  5  1  0
 14  5  1  0
 15  5  1  0
M  END
>  <_FileComments>  (53) 
2-Methyl-2-butene

$$$$
Cyclopentene
     RDKit          3D

 13 13  0  0  0  0  0  0  0  0999 V2000
   -0.2615   -1.2080    0.0000 C   0  0  0  0  0  0  0  0  0  0  0  0
    0.2807   -2.1583    0.0000 H   0  0  0  0  0  0  0  0  0  0  0  0
   -1.3315   -1.4439    0.0000 H   0  0  0  0  0  0  0  0  0  0  0  0
    0.0686   -0.3280    1.2369 C   0  0  0  0  0  0  0  0  0  0  0  0
    0.0686   -0.3280   -1.2369 C   0  0  0  0  0  0  0  0  0  0  0  0
    0.0645    1.0751    0.6691 C   0  0  0  0  0  0  0  0  0  0  0  0
    0.0645    1.0751   -0.6691 C   0  0  0  0  0  0  0  0  0  0  0  0
   -0.6541   -0.4622    2.0509 H   0  0  0  0  0  0  0  0  0  0  0  0
    1.0565   -0.5683    1.6579 H   0  0  0  0  0  0  0  0  0  0  0  0
   -0.6541   -0.4622   -2.0509 H   0  0  0  0  0  0  0  0  0  0  0  0
    1.0565   -0.5683   -1.6579 H   0  0  0  0  0  0  0  0  0  0  0  0
    0.0990    1.9645    1.2921 H   0  0  0  0  0  0  0  0  0  0  0  0
    0.0990    1.9645   -1.2921 H   0  0  0  0  0  0  0  0  0  0  0  0
  2  1  1  0
  3  1  1  0
  4  1  1  0
  5  1  1  0
  6  4  1  0
  7  6  2  0
  7  5  1  0
  8  4  1  0
  9  4  1  0
 10  5  1  0
 11  5  1  0
 12  6  1  0
 13  7  1  0
M  END
>  <_FileComments>  (54) 
Cyclopentene

$$$$
MTBE (methyl t-butyl ether)
     RDKit          3D

 18 17  0  0  0  0  0  0  0  0999 V2000
    0.6405   -1.9530    0.0000 C   0  0  0  0  0  0  0  0  0  0  0  0
   -0.4412   -1.0377    0.0000 O   0  0  0  0  0  0  0  0  0  0  0  0
   -0.1408    0.3775    0.0000 C   0  0  0  0  0  0  0  0  0  0  0  0
   -1.5255    1.0337    0.0000 C   0  0  0  0  0  0  0  0  0  0  0  0
    0.6350    0.7752    1.2671 C   0  0  0  0  0  0  0  0  0  0  0  0
    0.6350    0.7752   -1.2671 C   0  0  0  0  0  0  0  0  0  0  0  0
    0.1914   -2.9493    0.0000 H   0  0  0  0  0  0  0  0  0  0  0  0
    1.2727   -1.8584   -0.8937 H   0  0  0  0  0  0  0  0  0  0  0  0
    1.2727   -1.8584    0.8937 H   0  0  0  0  0  0  0  0  0  0  0  0
   -1.4378    2.1250    0.0000 H   0  0  0  0  0  0  0  0  0  0  0  0
   -2.0898    0.7274   -0.8861 H   0  0  0  0  0  0  0  0  0  0  0  0
   -2.0898    0.7274    0.8861 H   0  0  0  0  0  0  0  0  0  0  0  0
    0.7390    1.8641    1.3195 H   0  0  0  0  0  0  0  0  0  0  0  0
    0.1018    0.4374    2.1617 H   0  0  0  0  0  0  0  0  0  0  0  0
    1.6437    0.3503    1.2831 H   0  0  0  0  0  0  0  0  0  0  0  0
    0.7390    1.8641   -1.3195 H   0  0  0  0  0  0  0  0  0  0  0  0
    0.1018    0.4374   -2.1617 H   0  0  0  0  0  0  0  0  0  0  0  0
    1.6437    0.3503   -1.2831 H   0  0  0  0  0  0  0  0  0  0  0  0
  2  1  1  0
  3  2  1  0
  4  3  1  0
  5  3  1  0
  6  3  1  0
  7  1  1  0
  8  1  1  0
  9  1  1  0
 10  4  1  0
 11  4  1  0
 12  4  1  0
 13  5  1  0
 14  5  1  0
 15  5  1  0
 16  6  1  0
 17  6  1  0
 18  6  1  0
M  END
>  <_FileComments>  (55) 
MTBE (methyl t-butyl ether)

$$$$
Tetrahydropyran (THP)
     RDKit          3D

 16 16  0  0  0  0  0  0  0  0999 V2000
   -0.6248    1.3300    0.0000 C   0  0  0  0  0  0  0  0  0  0  0  0
   -1.7005    1.1010    0.0000 H   0  0  0  0  0  0  0  0  0  0  0  0
   -0.5361    2.4226    0.0000 H   0  0  0  0  0  0  0  0  0  0  0  0
    0.0203    0.7315    1.2608 C   0  0  0  0  0  0  0  0  0  0  0  0
    0.0203    0.7315   -1.2608 C   0  0  0  0  0  0  0  0  0  0  0  0
    0.0202   -0.7978    1.1849 C   0  0  0  0  0  0  0  0  0  0  0  0
    0.0202   -0.7978   -1.1849 C   0  0  0  0  0  0  0  0  0  0  0  0
    0.6588   -1.2698    0.0000 O   0  0  0  0  0  0  0  0  0  0  0  0
    1.0571    1.0809    1.3503 H   0  0  0  0  0  0  0  0  0  0  0  0
   -0.5118    1.0541    2.1647 H   0  0  0  0  0  0  0  0  0  0  0  0
    1.0571    1.0809   -1.3503 H   0  0  0  0  0  0  0  0  0  0  0  0
   -0.5118    1.0541   -2.1647 H   0  0  0  0  0  0  0  0  0  0  0  0
    0.5706   -1.2422    2.0189 H   0  0  0  0  0  0  0  0  0  0  0  0
   -1.0166   -1.1777    1.2182 H   0  0  0  0  0  0  0  0  0  0  0  0
    0.5706   -1.2422   -2.0189 H   0  0  0  0  0  0  0  0  0  0  0  0
   -1.0166   -1.1777   -1.2182 H   0  0  0  0  0  0  0  0  0  0  0  0
  2  1  1  0
  3  1  1  0
  4  1  1  0
  5  1  1  0
  6  4  1  0
  7  5  1  0
  8  7  1  0
  8  6  1  0
  9  4  1  0
 10  4  1  0
 11  5  1  0
 12  5  1  0
 13  6  1  0
 14  6  1  0
 15  7  1  0
 16  7  1  0
M  END
>  <_FileComments>  (56) 
Tetrahydropyran (THP)

$$$$
N-Methylpyrrolidine
     RDKit          3D

 17 17  0  0  0  0  0  0  0  0999 V2000
    0.3375    2.1034    0.0000 C   0  0  0  0  0  0  0  0  0  0  0  0
    0.4452    0.6565    0.0000 N   0  0  0  0  0  0  0  0  0  0  0  0
   -0.1623    0.0022    1.1586 C   0  0  0  0  0  0  0  0  0  0  0  0
   -0.1623    0.0022   -1.1586 C   0  0  0  0  0  0  0  0  0  0  0  0
   -0.1635   -1.4910    0.7791 C   0  0  0  0  0  0  0  0  0  0  0  0
   -0.1635   -1.4910   -0.7791 C   0  0  0  0  0  0  0  0  0  0  0  0
   -0.7150    2.4536    0.0000 H   0  0  0  0  0  0  0  0  0  0  0  0
    0.8331    2.5143   -0.8857 H   0  0  0  0  0  0  0  0  0  0  0  0
    0.8331    2.5143    0.8857 H   0  0  0  0  0  0  0  0  0  0  0  0
    0.4065    0.2217    2.0687 H   0  0  0  0  0  0  0  0  0  0  0  0
   -1.2015    0.3591    1.3185 H   0  0  0  0  0  0  0  0  0  0  0  0
    0.4065    0.2217   -2.0687 H   0  0  0  0  0  0  0  0  0  0  0  0
   -1.2015    0.3591   -1.3185 H   0  0  0  0  0  0  0  0  0  0  0  0
    0.7334   -1.9854    1.1636 H   0  0  0  0  0  0  0  0  0  0  0  0
   -1.0301   -2.0106    1.1985 H   0  0  0  0  0  0  0  0  0  0  0  0
    0.7334   -1.9854   -1.1636 H   0  0  0  0  0  0  0  0  0  0  0  0
   -1.0301   -2.0106   -1.1985 H   0  0  0  0  0  0  0  0  0  0  0  0
  2  1  1  0
  3  2  1  0
  4  2  1  0
  5  3  1  0
  6  5  1  0
  6  4  1  0
  7  1  1  0
  8  1  1  0
  9  1  1  0
 10  3  1  0
 11  3  1  0
 12  4  1  0
 13  4  1  0
 14  5  1  0
 15  5  1  0
 16  6  1  0
 17  6  1  0
M  END
>  <_FileComments>  (57) 
N-Methylpyrrolidine

$$$$
Cyclopentanone
     RDKit          3D

 14 14  0  0  0  0  0  0  0  0999 V2000
    0.0000    0.0000    2.1380 O   0  0  0  0  0  0  0  0  0  0  0  0
    0.0000    0.0000    0.9235 C   0  0  0  0  0  0  0  0  0  0  0  0
    0.0017    1.2439    0.0302 C   0  0  0  0  0  0  0  0  0  0  0  0
   -0.0017   -1.2439    0.0302 C   0  0  0  0  0  0  0  0  0  0  0  0
    0.2973    0.7148   -1.3838 C   0  0  0  0  0  0  0  0  0  0  0  0
   -0.2973   -0.7148   -1.3838 C   0  0  0  0  0  0  0  0  0  0  0  0
   -1.0038    1.6845    0.0884 H   0  0  0  0  0  0  0  0  0  0  0  0
    0.7020    1.9938    0.4087 H   0  0  0  0  0  0  0  0  0  0  0  0
    1.0038   -1.6845    0.0884 H   0  0  0  0  0  0  0  0  0  0  0  0
   -0.7020   -1.9938    0.4087 H   0  0  0  0  0  0  0  0  0  0  0  0
   -0.1191    1.3445   -2.1752 H   0  0  0  0  0  0  0  0  0  0  0  0
    1.3817    0.6646   -1.5443 H   0  0  0  0  0  0  0  0  0  0  0  0
    0.1191   -1.3445   -2.1752 H   0  0  0  0  0  0  0  0  0  0  0  0
   -1.3817   -0.6646   -1.5443 H   0  0  0  0  0  0  0  0  0  0  0  0
  2  1  2  0
  3  2  1  0
  4  2  1  0
  5  3  1  0
  6  5  1  0
  6  4  1  0
  7  3  1  0
  8  3  1  0
  9  4  1  0
 10  4  1  0
 11  5  1  0
 12  5  1  0
 13  6  1  0
 14  6  1  0
M  END
>  <_FileComments>  (58) 
Cyclopentanone

$$$$
2-Methyl-2-cyanopropane
     RDKit          3D

 15 14  0  0  0  0  0  0  0  0999 V2000
    0.0000    0.0000    2.3609 N   0  0  0  0  0  0  0  0  0  0  0  0
    0.0000    0.0000    1.1988 C   0  0  0  0  0  0  0  0  0  0  0  0
    0.0000    0.0000   -0.2803 C   0  0  0  0  0  0  0  0  0  0  0  0
    0.0000    1.4659   -0.7727 C   0  0  0  0  0  0  0  0  0  0  0  0
    1.2695   -0.7329   -0.7727 C   0  0  0  0  0  0  0  0  0  0  0  0
   -1.2695   -0.7329   -0.7727 C   0  0  0  0  0  0  0  0  0  0  0  0
    0.0000    1.4809   -1.8677 H   0  0  0  0  0  0  0  0  0  0  0  0
   -0.8866    2.0011   -0.4205 H   0  0  0  0  0  0  0  0  0  0  0  0
    0.8866    2.0011   -0.4205 H   0  0  0  0  0  0  0  0  0  0  0  0
    1.2825   -0.7404   -1.8677 H   0  0  0  0  0  0  0  0  0  0  0  0
    2.1763   -0.2327   -0.4205 H   0  0  0  0  0  0  0  0  0  0  0  0
    1.2897   -1.7684   -0.4205 H   0  0  0  0  0  0  0  0  0  0  0  0
   -1.2825   -0.7404   -1.8677 H   0  0  0  0  0  0  0  0  0  0  0  0
   -1.2897   -1.7684   -0.4205 H   0  0  0  0  0  0  0  0  0  0  0  0
   -2.1763   -0.2327   -0.4205 H   0  0  0  0  0  0  0  0  0  0  0  0
  2  1  3  0
  3  2  1  0
  4  3  1  0
  5  3  1  0
  6  3  1  0
  7  4  1  0
  8  4  1  0
  9  4  1  0
 10  5  1  0
 11  5  1  0
 12  5  1  0
 13  6  1  0
 14  6  1  0
 15  6  1  0
M  END
>  <_FileComments>  (59) 
2-Methyl-2-cyanopropane

$$$$
Cyclopentenone
     RDKit          3D

 12 12  0  0  0  0  0  0  0  0999 V2000
    0.0651    2.1004    0.0000 O   0  0  0  0  0  0  0  0  0  0  0  0
    0.0015    0.8825    0.0000 C   0  0  0  0  0  0  0  0  0  0  0  0
   -1.2270    0.0542    0.0000 C   0  0  0  0  0  0  0  0  0  0  0  0
   -0.9044   -1.2503    0.0000 C   0  0  0  0  0  0  0  0  0  0  0  0
    0.5871   -1.4953    0.0000 C   0  0  0  0  0  0  0  0  0  0  0  0
    1.2000   -0.0791    0.0000 C   0  0  0  0  0  0  0  0  0  0  0  0
   -2.2217    0.4843    0.0000 H   0  0  0  0  0  0  0  0  0  0  0  0
   -1.6200   -2.0680    0.0000 H   0  0  0  0  0  0  0  0  0  0  0  0
    0.8834   -2.0847    0.8771 H   0  0  0  0  0  0  0  0  0  0  0  0
    0.8834   -2.0847   -0.8771 H   0  0  0  0  0  0  0  0  0  0  0  0
    1.8198    0.1215    0.8797 H   0  0  0  0  0  0  0  0  0  0  0  0
    1.8198    0.1215   -0.8797 H   0  0  0  0  0  0  0  0  0  0  0  0
  2  1  2  0
  3  2  1  0
  4  3  2  0
  5  4  1  0
  6  5  1  0
  6  2  1  0
  7  3  1  0
  8  4  1  0
  9  5  1  0
 10  5  1  0
 11  6  1  0
 12  6  1  0
M  END
>  <_FileComments>  (60) 
Cyclopentenone

$$$$
N-Methylpyrrole
     RDKit          3D

 13 13  0  0  0  0  0  0  0  0999 V2000
    1.1203    2.4076    0.0000 H   0  0  0  0  0  0  0  0  0  0  0  0
    0.0750    2.0758    0.0000 C   0  0  0  0  0  0  0  0  0  0  0  0
   -0.0265    0.6275    0.0000 N   0  0  0  0  0  0  0  0  0  0  0  0
   -0.0190   -0.1739    1.1204 C   0  0  0  0  0  0  0  0  0  0  0  0
   -0.0190   -0.1739   -1.1204 C   0  0  0  0  0  0  0  0  0  0  0  0
   -0.0185   -1.4941    0.7125 C   0  0  0  0  0  0  0  0  0  0  0  0
   -0.0185   -1.4941   -0.7125 C   0  0  0  0  0  0  0  0  0  0  0  0
   -0.4221    2.4790   -0.8858 H   0  0  0  0  0  0  0  0  0  0  0  0
   -0.4221    2.4790    0.8858 H   0  0  0  0  0  0  0  0  0  0  0  0
   -0.0185    0.2623    2.1092 H   0  0  0  0  0  0  0  0  0  0  0  0
   -0.0185    0.2623   -2.1092 H   0  0  0  0  0  0  0  0  0  0  0  0
   -0.0311   -2.3576    1.3628 H   0  0  0  0  0  0  0  0  0  0  0  0
   -0.0311   -2.3576   -1.3628 H   0  0  0  0  0  0  0  0  0  0  0  0
  2  1  1  0
  3  2  1  0
  4  3  1  0
  5  3  1  0
  6  4  2  0
  7  6  1  0
  7  5  2  0
  8  2  1  0
  9  2  1  0
 10  4  1  0
 11  5  1  0
 12  6  1  0
 13  7  1  0
M  END
>  <_FileComments>  (61) 
N-Methylpyrrole

$$$$
Furfural
     RDKit          3D

 11 11  0  0  0  0  0  0  0  0999 V2000
    1.2502   -0.2683    0.0000 O   0  0  0  0  0  0  0  0  0  0  0  0
   -0.0078    0.2914    0.0000 C   0  0  0  0  0  0  0  0  0  0  0  0
   -0.9547   -0.7051    0.0000 C   0  0  0  0  0  0  0  0  0  0  0  0
   -0.2446   -1.9385    0.0000 C   0  0  0  0  0  0  0  0  0  0  0  0
    1.0863   -1.6113    0.0000 C   0  0  0  0  0  0  0  0  0  0  0  0
   -0.0798    1.7449    0.0000 C   0  0  0  0  0  0  0  0  0  0  0  0
   -1.1285    2.3722    0.0000 O   0  0  0  0  0  0  0  0  0  0  0  0
   -2.0238   -0.5499    0.0000 H   0  0  0  0  0  0  0  0  0  0  0  0
   -0.6575   -2.9370    0.0000 H   0  0  0  0  0  0  0  0  0  0  0  0
    1.9915   -2.1992    0.0000 H   0  0  0  0  0  0  0  0  0  0  0  0
    0.9030    2.2570    0.0000 H   0  0  0  0  0  0  0  0  0  0  0  0
  2  1  1  0
  3  2  2  0
  4  3  1  0
  5  4  2  0
  5  1  1  0
  6  2  1  0
  7  6  2  0
  8  3  1  0
  9  4  1  0
 10  5  1  0
 11  6  1  0
M  END
>  <_FileComments>  (62) 
Furfural

$$$$
Pyridine
     RDKit          3D

 11 11  0  0  0  0  0  0  0  0999 V2000
    0.0000    0.0000    1.4206 N   0  0  0  0  0  0  0  0  0  0  0  0
    0.0000    1.1446    0.7230 C   0  0  0  0  0  0  0  0  0  0  0  0
    0.0000   -1.1446    0.7230 C   0  0  0  0  0  0  0  0  0  0  0  0
    0.0000    1.2000   -0.6737 C   0  0  0  0  0  0  0  0  0  0  0  0
    0.0000   -1.2000   -0.6737 C   0  0  0  0  0  0  0  0  0  0  0  0
    0.0000    0.0000   -1.3869 C   0  0  0  0  0  0  0  0  0  0  0  0
    0.0000    2.0612    1.3095 H   0  0  0  0  0  0  0  0  0  0  0  0
    0.0000   -2.0612    1.3095 H   0  0  0  0  0  0  0  0  0  0  0  0
    0.0000    2.1589   -1.1826 H   0  0  0  0  0  0  0  0  0  0  0  0
    0.0000   -2.1589   -1.1826 H   0  0  0  0  0  0  0  0  0  0  0  0
    0.0000    0.0000   -2.4733 H   0  0  0  0  0  0  0  0  0  0  0  0
  2  1  2  0
  3  1  1  0
  4  2  1  0
  5  3  2  0
  6  5  1  0
  6  4  2  0
  7  2  1  0
  8  3  1  0
  9  4  1  0
 10  5  1  0
 11  6  1  0
M  END
>  <_FileComments>  (63) 
Pyridine

$$$$
3,3-Dimethyl-1-butene
     RDKit          3D

 18 17  0  0  0  0  0  0  0  0999 V2000
   -0.1256   -2.2106    0.0000 C   0  0  0  0  0  0  0  0  0  0  0  0
    0.5687   -1.0684    0.0000 C   0  0  0  0  0  0  0  0  0  0  0  0
    0.0311    0.3517    0.0000 C   0  0  0  0  0  0  0  0  0  0  0  0
   -1.5061    0.4017    0.0000 C   0  0  0  0  0  0  0  0  0  0  0  0
    0.5687    1.0724    1.2595 C   0  0  0  0  0  0  0  0  0  0  0  0
    0.5687    1.0724   -1.2595 C   0  0  0  0  0  0  0  0  0  0  0  0
   -1.2113   -2.2362    0.0000 H   0  0  0  0  0  0  0  0  0  0  0  0
    0.3803   -3.1719    0.0000 H   0  0  0  0  0  0  0  0  0  0  0  0
    1.6592   -1.1299    0.0000 H   0  0  0  0  0  0  0  0  0  0  0  0
   -1.8490    1.4422    0.0000 H   0  0  0  0  0  0  0  0  0  0  0  0
   -1.9235   -0.0873   -0.8869 H   0  0  0  0  0  0  0  0  0  0  0  0
   -1.9235   -0.0873    0.8869 H   0  0  0  0  0  0  0  0  0  0  0  0
    0.2512    2.1219    1.2676 H   0  0  0  0  0  0  0  0  0  0  0  0
    0.1982    0.5958    2.1734 H   0  0  0  0  0  0  0  0  0  0  0  0
    1.6642    1.0536    1.2903 H   0  0  0  0  0  0  0  0  0  0  0  0
    0.2512    2.1219   -1.2676 H   0  0  0  0  0  0  0  0  0  0  0  0
    0.1982    0.5958   -2.1734 H   0  0  0  0  0  0  0  0  0  0  0  0
    1.6642    1.0536   -1.2903 H   0  0  0  0  0  0  0  0  0  0  0  0
  2  1  2  0
  3  2  1  0
  4  3  1  0
  5  3  1  0
  6  3  1  0
  7  1  1  0
  8  1  1  0
  9  2  1  0
 10  4  1  0
 11  4  1  0
 12  4  1  0
 13  5  1  0
 14  5  1  0
 15  5  1  0
 16  6  1  0
 17  6  1  0
 18  6  1  0
M  END
>  <_FileComments>  (64) 
3,3-Dimethyl-1-butene

$$$$
Cyclohexane, chair
     RDKit          3D

 18 18  0  0  0  0  0  0  0  0999 V2000
   -1.2717    0.7342    0.2285 C   0  0  0  0  0  0  0  0  0  0  0  0
    0.0000    1.4684   -0.2285 C   0  0  0  0  0  0  0  0  0  0  0  0
    0.0000   -1.4684    0.2285 C   0  0  0  0  0  0  0  0  0  0  0  0
    1.2717   -0.7342   -0.2285 C   0  0  0  0  0  0  0  0  0  0  0  0
    1.2717    0.7342    0.2285 C   0  0  0  0  0  0  0  0  0  0  0  0
   -1.2717   -0.7342   -0.2285 C   0  0  0  0  0  0  0  0  0  0  0  0
   -1.3325    0.7693    1.3264 H   0  0  0  0  0  0  0  0  0  0  0  0
    0.0000    1.5387   -1.3264 H   0  0  0  0  0  0  0  0  0  0  0  0
    0.0000   -1.5387    1.3264 H   0  0  0  0  0  0  0  0  0  0  0  0
    1.3325   -0.7693   -1.3264 H   0  0  0  0  0  0  0  0  0  0  0  0
    1.3325    0.7693    1.3264 H   0  0  0  0  0  0  0  0  0  0  0  0
   -1.3325   -0.7693   -1.3264 H   0  0  0  0  0  0  0  0  0  0  0  0
   -2.1640    1.2494   -0.1489 H   0  0  0  0  0  0  0  0  0  0  0  0
    0.0000    2.4988    0.1489 H   0  0  0  0  0  0  0  0  0  0  0  0
    0.0000   -2.4988   -0.1489 H   0  0  0  0  0  0  0  0  0  0  0  0
    2.1640   -1.2494    0.1489 H   0  0  0  0  0  0  0  0  0  0  0  0
    2.1640    1.2494   -0.1489 H   0  0  0  0  0  0  0  0  0  0  0  0
   -2.1640   -1.2494    0.1489 H   0  0  0  0  0  0  0  0  0  0  0  0
  2  1  1  0
  4  3  1  0
  5  4  1  0
  5  2  1  0
  6  3  1  0
  6  1  1  0
  7  1  1  0
  8  2  1  0
  9  3  1  0
 10  4  1  0
 11  5  1  0
 12  6  1  0
 13  1  1  0
 14  2  1  0
 15  3  1  0
 16  4  1  0
 17  5  1  0
 18  6  1  0
M  END
>  <_FileComments>  (65) 
Cyclohexane, chair

$$$$
t-Butylacetylene
     RDKit          3D

 16 15  0  0  0  0  0  0  0  0999 V2000
    0.2987    0.0000    0.0000 C   0  0  0  0  0  0  0  0  0  0  0  0
   -1.1755    0.0003    0.0000 C   0  0  0  0  0  0  0  0  0  0  0  0
   -2.3868    0.0003    0.0000 C   0  0  0  0  0  0  0  0  0  0  0  0
    0.8088    1.4611    0.0000 C   0  0  0  0  0  0  0  0  0  0  0  0
    0.8087   -0.7307    1.2652 C   0  0  0  0  0  0  0  0  0  0  0  0
    0.8087   -0.7307   -1.2652 C   0  0  0  0  0  0  0  0  0  0  0  0
   -3.4528    0.0004    0.0000 H   0  0  0  0  0  0  0  0  0  0  0  0
    1.9047    1.4733    0.0000 H   0  0  0  0  0  0  0  0  0  0  0  0
    0.4576    1.9986   -0.8862 H   0  0  0  0  0  0  0  0  0  0  0  0
    0.4576    1.9986    0.8862 H   0  0  0  0  0  0  0  0  0  0  0  0
    1.9045   -0.7384    1.2750 H   0  0  0  0  0  0  0  0  0  0  0  0
    0.4588   -0.2311    2.1738 H   0  0  0  0  0  0  0  0  0  0  0  0
    0.4563   -1.7665    1.2880 H   0  0  0  0  0  0  0  0  0  0  0  0
    1.9045   -0.7384   -1.2750 H   0  0  0  0  0  0  0  0  0  0  0  0
    0.4563   -1.7665   -1.2880 H   0  0  0  0  0  0  0  0  0  0  0  0
    0.4588   -0.2311   -2.1738 H   0  0  0  0  0  0  0  0  0  0  0  0
  2  1  1  0
  3  2  3  0
  4  1  1  0
  5  1  1  0
  6  1  1  0
  7  3  1  0
  8  4  1  0
  9  4  1  0
 10  4  1  0
 11  5  1  0
 12  5  1  0
 13  5  1  0
 14  6  1  0
 15  6  1  0
 16  6  1  0
M  END
>  <_FileComments>  (66) 
t-Butylacetylene

$$$$
Cyclohexene
     RDKit          3D

 16 16  0  0  0  0  0  0  0  0999 V2000
    0.0049    0.6699    1.3069 C   0  0  0  0  0  0  0  0  0  0  0  0
   -0.0049   -0.6699    1.3069 C   0  0  0  0  0  0  0  0  0  0  0  0
   -0.0058    1.5039    0.0476 C   0  0  0  0  0  0  0  0  0  0  0  0
    0.0058   -1.5039    0.0476 C   0  0  0  0  0  0  0  0  0  0  0  0
   -0.3711    0.6722   -1.1934 C   0  0  0  0  0  0  0  0  0  0  0  0
    0.3711   -0.6722   -1.1934 C   0  0  0  0  0  0  0  0  0  0  0  0
    0.0196    1.2045    2.2559 H   0  0  0  0  0  0  0  0  0  0  0  0
   -0.0196   -1.2045    2.2559 H   0  0  0  0  0  0  0  0  0  0  0  0
   -0.7096    2.3389    0.1646 H   0  0  0  0  0  0  0  0  0  0  0  0
    0.7096   -2.3389    0.1646 H   0  0  0  0  0  0  0  0  0  0  0  0
    0.9825    1.9706   -0.0885 H   0  0  0  0  0  0  0  0  0  0  0  0
   -0.9825   -1.9706   -0.0885 H   0  0  0  0  0  0  0  0  0  0  0  0
   -1.4537    0.4840   -1.1953 H   0  0  0  0  0  0  0  0  0  0  0  0
    1.4537   -0.4840   -1.1953 H   0  0  0  0  0  0  0  0  0  0  0  0
   -0.1481    1.2372   -2.1064 H   0  0  0  0  0  0  0  0  0  0  0  0
    0.1481   -1.2372   -2.1064 H   0  0  0  0  0  0  0  0  0  0  0  0
  2  1  2  0
  3  1  1  0
  4  2  1  0
  5  3  1  0
  6  5  1  0
  6  4  1  0
  7  1  1  0
  8  2  1  0
  9  3  1  0
 10  4  1  0
 11  3  1  0
 12  4  1  0
 13  5  1  0
 14  6  1  0
 15  5  1  0
 16  6  1  0
M  END
>  <_FileComments>  (67) 
Cyclohexene

$$$$
Benzene
     RDKit          3D

 12 12  0  0  0  0  0  0  0  0999 V2000
    0.0000    1.3985    0.0000 C   0  0  0  0  0  0  0  0  0  0  0  0
    1.2111    0.6993    0.0000 C   0  0  0  0  0  0  0  0  0  0  0  0
   -1.2111    0.6993    0.0000 C   0  0  0  0  0  0  0  0  0  0  0  0
    1.2111   -0.6993    0.0000 C   0  0  0  0  0  0  0  0  0  0  0  0
   -1.2111   -0.6993    0.0000 C   0  0  0  0  0  0  0  0  0  0  0  0
    0.0000   -1.3985    0.0000 C   0  0  0  0  0  0  0  0  0  0  0  0
    0.0000    2.4850    0.0000 H   0  0  0  0  0  0  0  0  0  0  0  0
    2.1520    1.2425    0.0000 H   0  0  0  0  0  0  0  0  0  0  0  0
   -2.1520    1.2425    0.0000 H   0  0  0  0  0  0  0  0  0  0  0  0
    2.1520   -1.2425    0.0000 H   0  0  0  0  0  0  0  0  0  0  0  0
   -2.1520   -1.2425    0.0000 H   0  0  0  0  0  0  0  0  0  0  0  0
    0.0000   -2.4850    0.0000 H   0  0  0  0  0  0  0  0  0  0  0  0
  2  1  2  0
  3  1  1  0
  4  2  1  0
  5  3  2  0
  6  5  1  0
  6  4  2  0
  7  1  1  0
  8  2  1  0
  9  3  1  0
 10  4  1  0
 11  5  1  0
 12  6  1  0
M  END
>  <_FileComments>  (68) 
Benzene

$$$$
N-Methylpiperidine
     RDKit          3D

 20 20  0  0  0  0  0  0  0  0999 V2000
    0.3088    2.8122    0.0000 H   0  0  0  0  0  0  0  0  0  0  0  0
   -0.6755    2.3017    0.0000 C   0  0  0  0  0  0  0  0  0  0  0  0
   -0.5624    0.8508    0.0000 N   0  0  0  0  0  0  0  0  0  0  0  0
    0.0951    0.3573    1.2114 C   0  0  0  0  0  0  0  0  0  0  0  0
    0.0951    0.3573   -1.2114 C   0  0  0  0  0  0  0  0  0  0  0  0
    0.0988   -1.1740    1.2597 C   0  0  0  0  0  0  0  0  0  0  0  0
    0.0988   -1.1740   -1.2597 C   0  0  0  0  0  0  0  0  0  0  0  0
    0.7507   -1.7613    0.0000 C   0  0  0  0  0  0  0  0  0  0  0  0
   -1.2277    2.6310   -0.8863 H   0  0  0  0  0  0  0  0  0  0  0  0
   -1.2277    2.6310    0.8863 H   0  0  0  0  0  0  0  0  0  0  0  0
    1.1410    0.7299    1.2734 H   0  0  0  0  0  0  0  0  0  0  0  0
   -0.4390    0.7616    2.0790 H   0  0  0  0  0  0  0  0  0  0  0  0
    1.1410    0.7299   -1.2734 H   0  0  0  0  0  0  0  0  0  0  0  0
   -0.4390    0.7616   -2.0790 H   0  0  0  0  0  0  0  0  0  0  0  0
    0.6267   -1.5078    2.1614 H   0  0  0  0  0  0  0  0  0  0  0  0
   -0.9375   -1.5267    1.3385 H   0  0  0  0  0  0  0  0  0  0  0  0
    0.6267   -1.5078   -2.1614 H   0  0  0  0  0  0  0  0  0  0  0  0
   -0.9375   -1.5267   -1.3385 H   0  0  0  0  0  0  0  0  0  0  0  0
    1.8233   -1.5188    0.0000 H   0  0  0  0  0  0  0  0  0  0  0  0
    0.6750   -2.8553    0.0000 H   0  0  0  0  0  0  0  0  0  0  0  0
  2  1  1  0
  3  2  1  0
  4  3  1  0
  5  3  1  0
  6  4  1  0
  7  5  1  0
  8  7  1  0
  8  6  1  0
  9  2  1  0
 10  2  1  0
 11  4  1  0
 12  4  1  0
 13  5  1  0
 14  5  1  0
 15  6  1  0
 16  6  1  0
 17  7  1  0
 18  7  1  0
 19  8  1  0
 20  8  1  0
M  END
>  <_FileComments>  (69) 
N-Methylpiperidine

$$$$
Cyclohexanone
     RDKit          3D

 17 17  0  0  0  0  0  0  0  0999 V2000
   -1.2483    1.9699    0.0000 O   0  0  0  0  0  0  0  0  0  0  0  0
   -0.4071    1.0862    0.0000 C   0  0  0  0  0  0  0  0  0  0  0  0
    0.1546    0.5005    1.2878 C   0  0  0  0  0  0  0  0  0  0  0  0
    0.1546    0.5005   -1.2878 C   0  0  0  0  0  0  0  0  0  0  0  0
    0.1588   -1.0436    1.2674 C   0  0  0  0  0  0  0  0  0  0  0  0
    0.1588   -1.0436   -1.2674 C   0  0  0  0  0  0  0  0  0  0  0  0
    0.8297   -1.5929    0.0000 C   0  0  0  0  0  0  0  0  0  0  0  0
    1.1906    0.8594    1.3852 H   0  0  0  0  0  0  0  0  0  0  0  0
   -0.4156    0.9005    2.1306 H   0  0  0  0  0  0  0  0  0  0  0  0
    1.1906    0.8594   -1.3852 H   0  0  0  0  0  0  0  0  0  0  0  0
   -0.4156    0.9005   -2.1306 H   0  0  0  0  0  0  0  0  0  0  0  0
    0.6622   -1.4198    2.1655 H   0  0  0  0  0  0  0  0  0  0  0  0
   -0.8773   -1.4053    1.3157 H   0  0  0  0  0  0  0  0  0  0  0  0
    0.6622   -1.4198   -2.1655 H   0  0  0  0  0  0  0  0  0  0  0  0
   -0.8773   -1.4053   -1.3157 H   0  0  0  0  0  0  0  0  0  0  0  0
    1.8943   -1.3171    0.0000 H   0  0  0  0  0  0  0  0  0  0  0  0
    0.7910   -2.6887    0.0000 H   0  0  0  0  0  0  0  0  0  0  0  0
  2  1  2  0
  3  2  1  0
  4  2  1  0
  5  3  1  0
  6  4  1  0
  7  6  1  0
  7  5  1  0
  8  3  1  0
  9  3  1  0
 10  4  1  0
 11  4  1  0
 12  5  1  0
 13  5  1  0
 14  6  1  0
 15  6  1  0
 16  7  1  0
 17  7  1  0
M  END
>  <_FileComments>  (70) 
Cyclohexanone

$$$$
Cyclohexenone
     RDKit          3D

 15 15  0  0  0  0  0  0  0  0999 V2000
   -2.3626    0.0012   -0.0705 O   0  0  0  0  0  0  0  0  0  0  0  0
   -1.1406    0.0223    0.0214 C   0  0  0  0  0  0  0  0  0  0  0  0
   -0.3818    1.2909   -0.0515 C   0  0  0  0  0  0  0  0  0  0  0  0
    0.9621    1.3260    0.0236 C   0  0  0  0  0  0  0  0  0  0  0  0
    1.8203    0.0939    0.1306 C   0  0  0  0  0  0  0  0  0  0  0  0
    1.0776   -1.1647   -0.3416 C   0  0  0  0  0  0  0  0  0  0  0  0
   -0.3293   -1.2440    0.2682 C   0  0  0  0  0  0  0  0  0  0  0  0
   -0.9740    2.1970   -0.1463 H   0  0  0  0  0  0  0  0  0  0  0  0
    1.4699    2.2897    0.0125 H   0  0  0  0  0  0  0  0  0  0  0  0
    2.7435    0.2375   -0.4441 H   0  0  0  0  0  0  0  0  0  0  0  0
    2.1404   -0.0219    1.1788 H   0  0  0  0  0  0  0  0  0  0  0  0
    0.9933   -1.1363   -1.4357 H   0  0  0  0  0  0  0  0  0  0  0  0
    1.6522   -2.0634   -0.0916 H   0  0  0  0  0  0  0  0  0  0  0  0
   -0.8998   -2.0964   -0.1116 H   0  0  0  0  0  0  0  0  0  0  0  0
   -0.2581   -1.3678    1.3598 H   0  0  0  0  0  0  0  0  0  0  0  0
  2  1  2  0
  3  2  1  0
  4  3  2  0
  5  4  1  0
  6  5  1  0
  7  6  1  0
  7  2  1  0
  8  3  1  0
  9  4  1  0
 10  5  1  0
 11  5  1  0
 12  6  1  0
 13  6  1  0
 14  7  1  0
 15  7  1  0
M  END
>  <_FileComments>  (71) 
Cyclohexenone

$$$$
Fluorobenzene
     RDKit          3D

 12 12  0  0  0  0  0  0  0  0999 V2000
    0.0000    0.0000    2.2888 F   0  0  0  0  0  0  0  0  0  0  0  0
    0.0000    0.0000    0.9276 C   0  0  0  0  0  0  0  0  0  0  0  0
    0.0000    1.2199    0.2616 C   0  0  0  0  0  0  0  0  0  0  0  0
    0.0000   -1.2199    0.2616 C   0  0  0  0  0  0  0  0  0  0  0  0
    0.0000    1.2102   -1.1365 C   0  0  0  0  0  0  0  0  0  0  0  0
    0.0000   -1.2102   -1.1365 C   0  0  0  0  0  0  0  0  0  0  0  0
    0.0000    0.0000   -1.8372 C   0  0  0  0  0  0  0  0  0  0  0  0
    0.0000    2.1444    0.8289 H   0  0  0  0  0  0  0  0  0  0  0  0
    0.0000   -2.1444    0.8289 H   0  0  0  0  0  0  0  0  0  0  0  0
    0.0000    2.1526   -1.6759 H   0  0  0  0  0  0  0  0  0  0  0  0
    0.0000   -2.1526   -1.6759 H   0  0  0  0  0  0  0  0  0  0  0  0
    0.0000    0.0000   -2.9227 H   0  0  0  0  0  0  0  0  0  0  0  0
  2  1  1  0
  3  2  2  0
  4  2  1  0
  5  3  1  0
  6  4  2  0
  7  6  1  0
  7  5  2  0
  8  3  1  0
  9  4  1  0
 10  5  1  0
 11  6  1  0
 12  7  1  0
M  END
>  <_FileComments>  (72) 
Fluorobenzene

$$$$
Chlorobenzene
     RDKit          3D

 12 12  0  0  0  0  0  0  0  0999 V2000
    0.0000    0.0000    2.2663 Cl  0  0  0  0  0  0  0  0  0  0  0  0
    0.0000    0.0000    0.5050 C   0  0  0  0  0  0  0  0  0  0  0  0
    0.0000    1.2171   -0.1776 C   0  0  0  0  0  0  0  0  0  0  0  0
    0.0000   -1.2171   -0.1776 C   0  0  0  0  0  0  0  0  0  0  0  0
    0.0000    1.2088   -1.5753 C   0  0  0  0  0  0  0  0  0  0  0  0
    0.0000   -1.2088   -1.5753 C   0  0  0  0  0  0  0  0  0  0  0  0
    0.0000    0.0000   -2.2768 C   0  0  0  0  0  0  0  0  0  0  0  0
    0.0000    2.1503    0.3750 H   0  0  0  0  0  0  0  0  0  0  0  0
    0.0000   -2.1503    0.3750 H   0  0  0  0  0  0  0  0  0  0  0  0
    0.0000    2.1523   -2.1132 H   0  0  0  0  0  0  0  0  0  0  0  0
    0.0000   -2.1523   -2.1132 H   0  0  0  0  0  0  0  0  0  0  0  0
    0.0000    0.0000   -3.3625 H   0  0  0  0  0  0  0  0  0  0  0  0
  2  1  1  0
  3  2  2  0
  4  2  1  0
  5  3  1  0
  6  4  2  0
  7  6  1  0
  7  5  2  0
  8  3  1  0
  9  4  1  0
 10  5  1  0
 11  6  1  0
 12  7  1  0
M  END
>  <_FileComments>  (73) 
Chlorobenzene

$$$$
Nitrobenzene
     RDKit          3D

 14 14  0  0  0  0  0  0  0  0999 V2000
    0.0000    0.0000    1.7204 N   0  0  0  0  0  0  0  0  0  0  0  0
    0.0000    0.0000    0.2454 C   0  0  0  0  0  0  0  0  0  0  0  0
    0.0000    1.2222   -0.4275 C   0  0  0  0  0  0  0  0  0  0  0  0
    0.0000   -1.2222   -0.4275 C   0  0  0  0  0  0  0  0  0  0  0  0
    0.0000    1.2133   -1.8223 C   0  0  0  0  0  0  0  0  0  0  0  0
    0.0000   -1.2133   -1.8223 C   0  0  0  0  0  0  0  0  0  0  0  0
    0.0000    0.0000   -2.5187 C   0  0  0  0  0  0  0  0  0  0  0  0
    0.0000    2.1458    0.1380 H   0  0  0  0  0  0  0  0  0  0  0  0
    0.0000   -2.1458    0.1380 H   0  0  0  0  0  0  0  0  0  0  0  0
    0.0000    2.1537   -2.3642 H   0  0  0  0  0  0  0  0  0  0  0  0
    0.0000   -2.1537   -2.3642 H   0  0  0  0  0  0  0  0  0  0  0  0
    0.0000    0.0000   -3.6045 H   0  0  0  0  0  0  0  0  0  0  0  0
    0.0000    1.0902    2.2944 O   0  0  0  0  0  0  0  0  0  0  0  0
    0.0000   -1.0902    2.2944 O   0  0  0  0  0  0  0  0  0  0  0  0
  2  1  1  0
  3  2  2  0
  4  2  1  0
  5  3  1  0
  6  4  2  0
  7  6  1  0
  7  5  2  0
  8  3  1  0
  9  4  1  0
 10  5  1  0
 11  6  1  0
 12  7  1  0
 13  1  2  0
 14  1  1  0
M  CHG  2   1   1  14  -1
M  END
>  <_FileComments>  (74) 
Nitrobenzene

$$$$
1,4-Benzoquinone
     RDKit          3D

 12 12  0  0  0  0  0  0  0  0999 V2000
    0.0000    0.0000    1.4434 C   0  0  0  0  0  0  0  0  0  0  0  0
    0.0000    0.0000   -1.4434 C   0  0  0  0  0  0  0  0  0  0  0  0
    0.0000    1.2710    0.6723 C   0  0  0  0  0  0  0  0  0  0  0  0
    0.0000   -1.2710    0.6723 C   0  0  0  0  0  0  0  0  0  0  0  0
    0.0000    1.2710   -0.6723 C   0  0  0  0  0  0  0  0  0  0  0  0
    0.0000   -1.2710   -0.6723 C   0  0  0  0  0  0  0  0  0  0  0  0
    0.0000    0.0000    2.6705 O   0  0  0  0  0  0  0  0  0  0  0  0
    0.0000    0.0000   -2.6705 O   0  0  0  0  0  0  0  0  0  0  0  0
    0.0000    2.1848    1.2594 H   0  0  0  0  0  0  0  0  0  0  0  0
    0.0000   -2.1848    1.2594 H   0  0  0  0  0  0  0  0  0  0  0  0
    0.0000    2.1848   -1.2594 H   0  0  0  0  0  0  0  0  0  0  0  0
    0.0000   -2.1848   -1.2594 H   0  0  0  0  0  0  0  0  0  0  0  0
  3  1  1  0
  4  1  1  0
  5  3  2  0
  5  2  1  0
  6  4  2  0
  6  2  1  0
  7  1  2  0
  8  2  2  0
  9  3  1  0
 10  4  1  0
 11  5  1  0
 12  6  1  0
M  END
>  <_FileComments>  (75) 
1,4-Benzoquinone

$$$$
Toluene
     RDKit          3D

 15 15  0  0  0  0  0  0  0  0999 V2000
    1.0611    2.7994    0.0000 H   0  0  0  0  0  0  0  0  0  0  0  0
    0.0285    2.4275    0.0000 C   0  0  0  0  0  0  0  0  0  0  0  0
   -0.0055    0.9161    0.0000 C   0  0  0  0  0  0  0  0  0  0  0  0
   -0.0081    0.1953    1.2037 C   0  0  0  0  0  0  0  0  0  0  0  0
   -0.0081    0.1953   -1.2037 C   0  0  0  0  0  0  0  0  0  0  0  0
   -0.0074   -1.2023    1.2067 C   0  0  0  0  0  0  0  0  0  0  0  0
   -0.0074   -1.2023   -1.2067 C   0  0  0  0  0  0  0  0  0  0  0  0
   -0.0061   -1.9074    0.0000 C   0  0  0  0  0  0  0  0  0  0  0  0
   -0.0127    0.7346    2.1482 H   0  0  0  0  0  0  0  0  0  0  0  0
   -0.0127    0.7346   -2.1482 H   0  0  0  0  0  0  0  0  0  0  0  0
   -0.0116   -1.7394    2.1513 H   0  0  0  0  0  0  0  0  0  0  0  0
   -0.0116   -1.7394   -2.1513 H   0  0  0  0  0  0  0  0  0  0  0  0
   -0.0084   -2.9936    0.0000 H   0  0  0  0  0  0  0  0  0  0  0  0
   -0.4656    2.8394   -0.8856 H   0  0  0  0  0  0  0  0  0  0  0  0
   -0.4656    2.8394    0.8856 H   0  0  0  0  0  0  0  0  0  0  0  0
  2  1  1  0
  3  2  1  0
  4  3  2  0
  5  3  1  0
  6  4  1  0
  7  5  2  0
  8  7  1  0
  8  6  2  0
  9  4  1  0
 10  5  1  0
 11  6  1  0
 12  7  1  0
 13  8  1  0
 14  2  1  0
 15  2  1  0
M  END
>  <_FileComments>  (76) 
Toluene

$$$$
Norbornadiene
     RDKit          3D

 15 16  0  0  0  0  0  0  0  0999 V2000
    0.0000    0.0000    1.3565 C   0  0  0  0  0  0  0  0  0  0  0  0
    0.0000    1.1247    0.2731 C   0  0  1  0  0  0  0  0  0  0  0  0
    0.0000   -1.1247    0.2731 C   0  0  2  0  0  0  0  0  0  0  0  0
    1.2446    0.6695   -0.5210 C   0  0  0  0  0  0  0  0  0  0  0  0
    1.2446   -0.6695   -0.5210 C   0  0  0  0  0  0  0  0  0  0  0  0
   -1.2446    0.6695   -0.5210 C   0  0  0  0  0  0  0  0  0  0  0  0
   -1.2446   -0.6695   -0.5210 C   0  0  0  0  0  0  0  0  0  0  0  0
    0.8995    0.0000    1.9800 H   0  0  0  0  0  0  0  0  0  0  0  0
   -0.8995    0.0000    1.9800 H   0  0  0  0  0  0  0  0  0  0  0  0
    0.0000    2.1619    0.6126 H   0  0  0  0  0  0  0  0  0  0  0  0
    0.0000   -2.1619    0.6126 H   0  0  0  0  0  0  0  0  0  0  0  0
    1.9349    1.3395   -1.0205 H   0  0  0  0  0  0  0  0  0  0  0  0
    1.9349   -1.3395   -1.0205 H   0  0  0  0  0  0  0  0  0  0  0  0
   -1.9349    1.3395   -1.0205 H   0  0  0  0  0  0  0  0  0  0  0  0
   -1.9349   -1.3395   -1.0205 H   0  0  0  0  0  0  0  0  0  0  0  0
  2  1  1  0
  3  1  1  0
  4  2  1  0
  5  4  2  0
  5  3  1  0
  6  2  1  0
  7  6  2  0
  7  3  1  0
  8  1  1  0
  9  1  1  0
  2 10  1  1
  3 11  1  1
 12  4  1  0
 13  5  1  0
 14  6  1  0
 15  7  1  0
M  END
>  <_FileComments>  (77) 
Norbornadiene

$$$$
Anisole (methoxybenzene)
     RDKit          3D

 16 16  0  0  0  0  0  0  0  0999 V2000
   -0.0003    0.5282    0.0000 C   0  0  0  0  0  0  0  0  0  0  0  0
   -1.3750    0.2437    0.0000 C   0  0  0  0  0  0  0  0  0  0  0  0
   -1.8109   -1.0780    0.0000 C   0  0  0  0  0  0  0  0  0  0  0  0
   -0.8888   -2.1333    0.0000 C   0  0  0  0  0  0  0  0  0  0  0  0
    0.4748   -1.8437    0.0000 C   0  0  0  0  0  0  0  0  0  0  0  0
    0.9303   -0.5189    0.0000 C   0  0  0  0  0  0  0  0  0  0  0  0
    0.3297    1.8563    0.0000 O   0  0  0  0  0  0  0  0  0  0  0  0
    1.7050    2.2149    0.0000 C   0  0  0  0  0  0  0  0  0  0  0  0
   -2.0768    1.0715    0.0000 H   0  0  0  0  0  0  0  0  0  0  0  0
   -2.8770   -1.2867    0.0000 H   0  0  0  0  0  0  0  0  0  0  0  0
   -1.2321   -3.1631    0.0000 H   0  0  0  0  0  0  0  0  0  0  0  0
    1.2026   -2.6505    0.0000 H   0  0  0  0  0  0  0  0  0  0  0  0
    1.9956   -0.3213    0.0000 H   0  0  0  0  0  0  0  0  0  0  0  0
    1.7284    3.3054    0.0000 H   0  0  0  0  0  0  0  0  0  0  0  0
    2.2170    1.8405    0.8956 H   0  0  0  0  0  0  0  0  0  0  0  0
    2.2170    1.8405   -0.8956 H   0  0  0  0  0  0  0  0  0  0  0  0
  2  1  2  0
  3  2  1  0
  4  3  2  0
  5  4  1  0
  6  5  2  0
  6  1  1  0
  7  1  1  0
  8  7  1  0
  9  2  1  0
 10  3  1  0
 11  4  1  0
 12  5  1  0
 13  6  1  0
 14  8  1  0
 15  8  1  0
 16  8  1  0
M  END
>  <_FileComments>  (78) 
Anisole (methoxybenzene)

$$$$
N,N-Dimethylaniline
     RDKit          3D

 20 20  0  0  0  0  0  0  0  0999 V2000
   -0.1772    1.5724    0.0000 N   0  0  0  0  0  0  0  0  0  0  0  0
   -0.0738    0.1822    0.0000 C   0  0  0  0  0  0  0  0  0  0  0  0
   -0.0269   -0.5524    1.2089 C   0  0  0  0  0  0  0  0  0  0  0  0
   -0.0269   -0.5524   -1.2089 C   0  0  0  0  0  0  0  0  0  0  0  0
    0.0340   -1.9455    1.1996 C   0  0  0  0  0  0  0  0  0  0  0  0
    0.0340   -1.9455   -1.1996 C   0  0  0  0  0  0  0  0  0  0  0  0
    0.0621   -2.6606    0.0000 C   0  0  0  0  0  0  0  0  0  0  0  0
    0.0377    2.2976   -1.2422 C   0  0  0  0  0  0  0  0  0  0  0  0
    0.0377    2.2976    1.2422 C   0  0  0  0  0  0  0  0  0  0  0  0
   -0.0401   -0.0403    2.1630 H   0  0  0  0  0  0  0  0  0  0  0  0
   -0.0401   -0.0403   -2.1630 H   0  0  0  0  0  0  0  0  0  0  0  0
    0.0648   -2.4742    2.1487 H   0  0  0  0  0  0  0  0  0  0  0  0
    0.0648   -2.4742   -2.1487 H   0  0  0  0  0  0  0  0  0  0  0  0
    0.1118   -3.7449    0.0000 H   0  0  0  0  0  0  0  0  0  0  0  0
   -0.1082    3.3639   -1.0611 H   0  0  0  0  0  0  0  0  0  0  0  0
   -0.1082    3.3639    1.0611 H   0  0  0  0  0  0  0  0  0  0  0  0
    1.0497    2.1516   -1.6552 H   0  0  0  0  0  0  0  0  0  0  0  0
    1.0497    2.1516    1.6552 H   0  0  0  0  0  0  0  0  0  0  0  0
   -0.6879    1.9933   -2.0041 H   0  0  0  0  0  0  0  0  0  0  0  0
   -0.6879    1.9933    2.0041 H   0  0  0  0  0  0  0  0  0  0  0  0
  2  1  1  0
  3  2  2  0
  4  2  1  0
  5  3  1  0
  6  4  2  0
  7  6  1  0
  7  5  2  0
  8  1  1  0
  9  1  1  0
 10  3  1  0
 11  4  1  0
 12  5  1  0
 13  6  1  0
 14  7  1  0
 15  8  1  0
 16  9  1  0
 17  8  1  0
 18  9  1  0
 19  8  1  0
 20  9  1  0
M  END
>  <_FileComments>  (79) 
N,N-Dimethylaniline

$$$$
Indole
     RDKit          3D

 16 17  0  0  0  0  0  0  0  0999 V2000
   -1.0968    1.5580    0.0000 N   0  0  0  0  0  0  0  0  0  0  0  0
   -2.2553    0.8004    0.0000 C   0  0  0  0  0  0  0  0  0  0  0  0
   -1.9309   -0.5326    0.0000 C   0  0  0  0  0  0  0  0  0  0  0  0
   -0.4950   -0.6190    0.0000 C   0  0  0  0  0  0  0  0  0  0  0  0
   -0.0003    0.7168    0.0000 C   0  0  0  0  0  0  0  0  0  0  0  0
    1.3694    1.0087    0.0000 C   0  0  0  0  0  0  0  0  0  0  0  0
    2.2551   -0.0648    0.0000 C   0  0  0  0  0  0  0  0  0  0  0  0
    1.7884   -1.3981    0.0000 C   0  0  0  0  0  0  0  0  0  0  0  0
    0.4275   -1.6827    0.0000 C   0  0  0  0  0  0  0  0  0  0  0  0
   -1.0609    2.5646    0.0000 H   0  0  0  0  0  0  0  0  0  0  0  0
   -3.2233    1.2809    0.0000 H   0  0  0  0  0  0  0  0  0  0  0  0
   -2.6319   -1.3554    0.0000 H   0  0  0  0  0  0  0  0  0  0  0  0
    1.7300    2.0338    0.0000 H   0  0  0  0  0  0  0  0  0  0  0  0
    3.3243    0.1261    0.0000 H   0  0  0  0  0  0  0  0  0  0  0  0
    2.5081   -2.2115    0.0000 H   0  0  0  0  0  0  0  0  0  0  0  0
    0.0786   -2.7118    0.0000 H   0  0  0  0  0  0  0  0  0  0  0  0
  2  1  1  0
  3  2  2  0
  4  3  1  0
  5  4  1  0
  5  1  1  0
  6  5  2  0
  7  6  1  0
  8  7  2  0
  9  8  1  0
  9  4  2  0
 10  1  1  0
 11  2  1  0
 12  3  1  0
 13  6  1  0
 14  7  1  0
 15  8  1  0
 16  9  1  0
M  END
>  <_FileComments>  (80) 
Indole

$$$$
TMS
     RDKit          3D

 17 16  0  0  0  0  0  0  0  0999 V2000
    0.0000    0.0000    0.0000 Si  0  0  0  0  0  4  0  0  0  0  0  0
    1.0941    1.0941    1.0941 C   0  0  0  0  0  0  0  0  0  0  0  0
   -1.0941   -1.0941    1.0941 C   0  0  0  0  0  0  0  0  0  0  0  0
   -1.0941    1.0941   -1.0941 C   0  0  0  0  0  0  0  0  0  0  0  0
    1.0941   -1.0941   -1.0941 C   0  0  0  0  0  0  0  0  0  0  0  0
    1.7411    1.7411    0.4900 H   0  0  0  0  0  0  0  0  0  0  0  0
    1.7411    0.4900    1.7411 H   0  0  0  0  0  0  0  0  0  0  0  0
    0.4900    1.7411    1.7411 H   0  0  0  0  0  0  0  0  0  0  0  0
   -1.7411   -1.7411    0.4900 H   0  0  0  0  0  0  0  0  0  0  0  0
   -0.4900   -1.7411    1.7411 H   0  0  0  0  0  0  0  0  0  0  0  0
   -1.7411   -0.4900    1.7411 H   0  0  0  0  0  0  0  0  0  0  0  0
   -1.7411    0.4900   -1.7411 H   0  0  0  0  0  0  0  0  0  0  0  0
   -0.4900    1.7411   -1.7411 H   0  0  0  0  0  0  0  0  0  0  0  0
   -1.7411    1.7411   -0.4900 H   0  0  0  0  0  0  0  0  0  0  0  0
    0.4900   -1.7411   -1.7411 H   0  0  0  0  0  0  0  0  0  0  0  0
    1.7411   -0.4900   -1.7411 H   0  0  0  0  0  0  0  0  0  0  0  0
    1.7411   -1.7411   -0.4900 H   0  0  0  0  0  0  0  0  0  0  0  0
  2  1  1  0
  3  1  1  0
  4  1  1  0
  5  1  1  0
  6  2  1  0
  7  2  1  0
  8  2  1  0
  9  3  1  0
 10  3  1  0
 11  3  1  0
 12  4  1  0
 13  4  1  0
 14  4  1  0
 15  5  1  0
 16  5  1  0
 17  5  1  0
M  END
>  <_FileComments>  (81) 
TMS

$$$$
