Dichloromethane
     RDKit          3D

  5  4  0  0  0  0  0  0  0  0999 V2000
    0.0000    0.0000    0.7686 C   0  0  0  0  0  0  0  0  0  0  0  0
    0.0000    1.4966   -0.2158 Cl  0  0  0  0  0  0  0  0  0  0  0  0
    0.0000   -1.4966   -0.2158 Cl  0  0  0  0  0  0  0  0  0  0  0  0
   -0.8997    0.0000    1.3788 H   0  0  0  0  0  0  0  0  0  0  0  0
    0.8997    0.0000    1.3788 H   0  0  0  0  0  0  0  0  0  0  0  0
  2  1  1  0
  3  1  1  0
  4  1  1  0
  5  1  1  0
M  END
