Chloroform
     RDKit          3D

  5  4  0  0  0  0  0  0  0  0999 V2000
    0.0000    0.0000    0.4545 C   0  0  0  0  0  0  0  0  0  0  0  0
    0.0000    0.0000    1.5401 H   0  0  0  0  0  0  0  0  0  0  0  0
    0.0000    1.7050   -0.0837 Cl  0  0  0  0  0  0  0  0  0  0  0  0
    1.4766   -0.8525   -0.0837 Cl  0  0  0  0  0  0  0  0  0  0  0  0
   -1.4766   -0.8525   -0.0837 Cl  0  0  0  0  0  0  0  0  0  0  0  0
  2  1  1  0
  3  1  1  0
  4  1  1  0
  5  1  1  0
M  END
