Methanol
     RDKit          3D

  6  5  0  0  0  0  0  0  0  0999 V2000
   -0.0478    0.6701    0.0000 C   0  0  0  0  0  0  0  0  0  0  0  0
   -0.0388   -0.7546    0.0000 O   0  0  0  0  0  0  0  0  0  0  0  0
   -1.0966    0.9747    0.0000 H   0  0  0  0  0  0  0  0  0  0  0  0
    0.4354    1.0868    0.8945 H   0  0  0  0  0  0  0  0  0  0  0  0
    0.4354    1.0868   -0.8945 H   0  0  0  0  0  0  0  0  0  0  0  0
    0.8750   -1.0644    0.0000 H   0  0  0  0  0  0  0  0  0  0  0  0
  2  1  1  0
  3  1  1  0
  4  1  1  0
  5  1  1  0
  6  2  1  0
M  END
