Nitromethane
     RDKit          3D

  7  6  0  0  0  0  0  0  0  0999 V2000
   -1.0488   -1.6318    0.0000 H   0  0  0  0  0  0  0  0  0  0  0  0
   -0.0001   -1.3281    0.0000 C   0  0  0  0  0  0  0  0  0  0  0  0
    0.0106    0.1721    0.0000 N   0  0  0  0  0  0  0  0  0  0  0  0
   -0.0011    0.7343    1.0920 O   0  0  0  0  0  0  0  0  0  0  0  0
   -0.0011    0.7343   -1.0920 O   0  0  0  0  0  0  0  0  0  0  0  0
    0.4950   -1.6683   -0.9071 H   0  0  0  0  0  0  0  0  0  0  0  0
    0.4950   -1.6683    0.9071 H   0  0  0  0  0  0  0  0  0  0  0  0
  2  1  1  0
  3  2  1  0
  4  3  2  0
  5  3  1  0
  6  2  1  0
  7  2  1  0
M  CHG  2   3   1   5  -1
M  END
