Chloroethane
     RDKit          3D

  8  7  0  0  0  0  0  0  0  0999 V2000
   -0.8278   -0.8023    0.0000 Cl  0  0  0  0  0  0  0  0  0  0  0  0
    0.0002    0.8214    0.0000 C   0  0  0  0  0  0  0  0  0  0  0  0
    1.5123    0.6792    0.0000 C   0  0  0  0  0  0  0  0  0  0  0  0
   -0.3614    1.3418    0.8883 H   0  0  0  0  0  0  0  0  0  0  0  0
   -0.3614    1.3418   -0.8883 H   0  0  0  0  0  0  0  0  0  0  0  0
    1.9687    1.6765    0.0000 H   0  0  0  0  0  0  0  0  0  0  0  0
    1.8595    0.1424    0.8872 H   0  0  0  0  0  0  0  0  0  0  0  0
    1.8595    0.1424   -0.8872 H   0  0  0  0  0  0  0  0  0  0  0  0
  2  1  1  0
  3  2  1  0
  4  2  1  0
  5  2  1  0
  6  3  1  0
  7  3  1  0
  8  3  1  0
M  END
