1,1,1-Trichloroethane
     RDKit          3D

  8  7  0  0  0  0  0  0  0  0999 V2000
    0.0000    0.0000    0.2533 C   0  0  0  0  0  0  0  0  0  0  0  0
    0.0000    0.0000    1.7737 C   0  0  0  0  0  0  0  0  0  0  0  0
    0.0000    1.6969   -0.3656 Cl  0  0  0  0  0  0  0  0  0  0  0  0
    1.4696   -0.8485   -0.3656 Cl  0  0  0  0  0  0  0  0  0  0  0  0
   -1.4696   -0.8485   -0.3656 Cl  0  0  0  0  0  0  0  0  0  0  0  0
    0.0000   -1.0293    2.1387 H   0  0  0  0  0  0  0  0  0  0  0  0
    0.8914    0.5147    2.1387 H   0  0  0  0  0  0  0  0  0  0  0  0
   -0.8914    0.5147    2.1387 H   0  0  0  0  0  0  0  0  0  0  0  0
  2  1  1  0
  3  1  1  0
  4  1  1  0
  5  1  1  0
  6  2  1  0
  7  2  1  0
  8  2  1  0
M  END
