Nitroethane
     RDKit          3D

 10  9  0  0  0  0  0  0  0  0999 V2000
   -0.2503   -1.8672    0.0000 C   0  0  0  0  0  0  0  0  0  0  0  0
    0.7027   -0.6879    0.0000 C   0  0  0  0  0  0  0  0  0  0  0  0
    0.0012    0.6595    0.0000 N   0  0  0  0  0  0  0  0  0  0  0  0
   -1.2257    0.6847    0.0000 O   0  0  0  0  0  0  0  0  0  0  0  0
    0.7315    1.6478    0.0000 O   0  0  0  0  0  0  0  0  0  0  0  0
    0.3402   -2.7890    0.0000 H   0  0  0  0  0  0  0  0  0  0  0  0
   -0.8903   -1.8654    0.8850 H   0  0  0  0  0  0  0  0  0  0  0  0
   -0.8903   -1.8654   -0.8850 H   0  0  0  0  0  0  0  0  0  0  0  0
    1.3467   -0.6562   -0.8822 H   0  0  0  0  0  0  0  0  0  0  0  0
    1.3467   -0.6562    0.8822 H   0  0  0  0  0  0  0  0  0  0  0  0
  2  1  1  0
  3  2  1  0
  4  3  2  0
  5  3  1  0
  6  1  1  0
  7  1  1  0
  8  1  1  0
  9  2  1  0
 10  2  1  0
M  CHG  2   3   1   5  -1
M  END
