Chlorodimethylsilane ((CH3)2SiHCl)
     RDKit          3D

 11 10  0  0  0  0  0  0  0  0999 V2000
    0.5654   -0.0277    0.0000 Si  0  0  0  0  0  4  0  0  0  0  0  0
   -1.1599    1.1729    0.0000 Cl  0  0  0  0  0  0  0  0  0  0  0  0
    1.7149    0.9118    0.0000 H   0  0  0  0  0  0  0  0  0  0  0  0
    0.5620   -1.0681    1.5626 C   0  0  0  0  0  0  0  0  0  0  0  0
    0.5620   -1.0681   -1.5626 C   0  0  0  0  0  0  0  0  0  0  0  0
   -0.3078   -1.7327    1.5924 H   0  0  0  0  0  0  0  0  0  0  0  0
    1.4663   -1.6870    1.6068 H   0  0  0  0  0  0  0  0  0  0  0  0
    0.5387   -0.4370    2.4564 H   0  0  0  0  0  0  0  0  0  0  0  0
   -0.3078   -1.7327   -1.5924 H   0  0  0  0  0  0  0  0  0  0  0  0
    1.4663   -1.6870   -1.6068 H   0  0  0  0  0  0  0  0  0  0  0  0
    0.5387   -0.4370   -2.4564 H   0  0  0  0  0  0  0  0  0  0  0  0
  2  1  1  0
  3  1  1  0
  4  1  1  0
  5  1  1  0
  6  4  1  0
  7  4  1  0
  8  4  1  0
  9  5  1  0
 10  5  1  0
 11  5  1  0
M  END
