1,1--Dichloroethylene
     RDKit          3D

  6  5  0  0  0  0  0  0  0  0999 V2000
    0.0000    0.0000    0.4243 C   0  0  0  0  0  0  0  0  0  0  0  0
    0.0000    0.0000    1.7551 C   0  0  0  0  0  0  0  0  0  0  0  0
    0.0000    1.4660   -0.5211 Cl  0  0  0  0  0  0  0  0  0  0  0  0
    0.0000   -1.4660   -0.5211 Cl  0  0  0  0  0  0  0  0  0  0  0  0
    0.0000   -0.9332    2.3055 H   0  0  0  0  0  0  0  0  0  0  0  0
    0.0000    0.9332    2.3055 H   0  0  0  0  0  0  0  0  0  0  0  0
  2  1  2  0
  3  1  1  0
  4  1  1  0
  5  2  1  0
  6  2  1  0
M  END
