trans-1,2-Dichloroethylene
     RDKit          3D

  6  5  0  0  0  0  0  0  0  0999 V2000
   -0.3672    0.5550    0.0000 C   0  0  0  0  0  0  0  0  0  0  0  0
    0.3672   -0.5550    0.0000 C   0  0  0  0  0  0  0  0  0  0  0  0
    0.3663    2.1365    0.0000 Cl  0  0  0  0  0  0  0  0  0  0  0  0
   -0.3663   -2.1365    0.0000 Cl  0  0  0  0  0  0  0  0  0  0  0  0
   -1.4502    0.5661    0.0000 H   0  0  0  0  0  0  0  0  0  0  0  0
    1.4502   -0.5661    0.0000 H   0  0  0  0  0  0  0  0  0  0  0  0
  2  1  2  0
  3  1  1  0
  4  2  1  0
  5  1  1  0
  6  2  1  0
M  END
