Trichloroethylene
     RDKit          3D

  6  5  0  0  0  0  0  0  0  0999 V2000
    0.0001    0.4412    0.0000 C   0  0  0  0  0  0  0  0  0  0  0  0
   -1.0355   -0.4054    0.0000 C   0  0  0  0  0  0  0  0  0  0  0  0
   -0.2841    2.1607    0.0000 Cl  0  0  0  0  0  0  0  0  0  0  0  0
    1.6603   -0.0414    0.0000 Cl  0  0  0  0  0  0  0  0  0  0  0  0
   -0.8887   -2.1290    0.0000 Cl  0  0  0  0  0  0  0  0  0  0  0  0
   -2.0536   -0.0383    0.0000 H   0  0  0  0  0  0  0  0  0  0  0  0
  2  1  2  0
  3  1  1  0
  4  1  1  0
  5  2  1  0
  6  2  1  0
M  END
