Acetaldehyde
     RDKit          3D

  7  6  0  0  0  0  0  0  0  0999 V2000
    1.2067    0.3890    0.0000 O   0  0  0  0  0  0  0  0  0  0  0  0
   -0.0048    0.4621    0.0000 C   0  0  0  0  0  0  0  0  0  0  0  0
   -0.9339   -0.7221    0.0000 C   0  0  0  0  0  0  0  0  0  0  0  0
   -0.5010    1.4579    0.0000 H   0  0  0  0  0  0  0  0  0  0  0  0
   -0.3717   -1.6580    0.0000 H   0  0  0  0  0  0  0  0  0  0  0  0
   -1.5874   -0.6754    0.8804 H   0  0  0  0  0  0  0  0  0  0  0  0
   -1.5874   -0.6754   -0.8804 H   0  0  0  0  0  0  0  0  0  0  0  0
  2  1  2  0
  3  2  1  0
  4  2  1  0
  5  3  1  0
  6  3  1  0
  7  3  1  0
M  END
