Oxirane
     RDKit          3D

  7  7  0  0  0  0  0  0  0  0999 V2000
    0.0000    0.0000    0.8550 O   0  0  0  0  0  0  0  0  0  0  0  0
    0.0000    0.7350   -0.3769 C   0  0  0  0  0  0  0  0  0  0  0  0
    0.0000   -0.7350   -0.3769 C   0  0  0  0  0  0  0  0  0  0  0  0
   -0.9213    1.2742   -0.5925 H   0  0  0  0  0  0  0  0  0  0  0  0
    0.9213    1.2742   -0.5925 H   0  0  0  0  0  0  0  0  0  0  0  0
    0.9213   -1.2742   -0.5925 H   0  0  0  0  0  0  0  0  0  0  0  0
   -0.9213   -1.2742   -0.5925 H   0  0  0  0  0  0  0  0  0  0  0  0
  2  1  1  0
  3  2  1  0
  3  1  1  0
  4  2  1  0
  5  2  1  0
  6  3  1  0
  7  3  1  0
M  END
