Dimethylsulfoxide
     RDKit          3D

 10  9  0  0  0  0  0  0  0  0999 V2000
    0.2676    0.4218    0.0000 S   0  0  0  0  0  0  0  0  0  0  0  0
   -1.0961    1.0916    0.0000 O   0  0  0  0  0  0  0  0  0  0  0  0
    0.2584   -0.8018    1.3695 C   0  0  0  0  0  0  0  0  0  0  0  0
    0.2584   -0.8018   -1.3695 C   0  0  0  0  0  0  0  0  0  0  0  0
    1.1775   -1.3942    1.3425 H   0  0  0  0  0  0  0  0  0  0  0  0
    0.2091   -0.2325    2.2995 H   0  0  0  0  0  0  0  0  0  0  0  0
   -0.6265   -1.4371    1.2766 H   0  0  0  0  0  0  0  0  0  0  0  0
    1.1775   -1.3942   -1.3425 H   0  0  0  0  0  0  0  0  0  0  0  0
    0.2091   -0.2325   -2.2995 H   0  0  0  0  0  0  0  0  0  0  0  0
   -0.6265   -1.4371   -1.2766 H   0  0  0  0  0  0  0  0  0  0  0  0
  2  1  1  0
  3  1  1  0
  4  1  1  0
  5  3  1  0
  6  3  1  0
  7  3  1  0
  8  4  1  0
  9  4  1  0
 10  4  1  0
M  CHG  2   1   1   2  -1
M  END
