Thiirane
     RDKit          3D

  7  7  0  0  0  0  0  0  0  0999 V2000
    0.0000    0.0000    0.8736 S   0  0  0  0  0  0  0  0  0  0  0  0
    0.0000    0.7414   -0.8075 C   0  0  0  0  0  0  0  0  0  0  0  0
    0.0000   -0.7414   -0.8075 C   0  0  0  0  0  0  0  0  0  0  0  0
   -0.9149    1.2586   -1.0838 H   0  0  0  0  0  0  0  0  0  0  0  0
    0.9149    1.2586   -1.0838 H   0  0  0  0  0  0  0  0  0  0  0  0
    0.9149   -1.2586   -1.0838 H   0  0  0  0  0  0  0  0  0  0  0  0
   -0.9149   -1.2586   -1.0838 H   0  0  0  0  0  0  0  0  0  0  0  0
  2  1  1  0
  3  2  1  0
  3  1  1  0
  4  2  1  0
  5  2  1  0
  6  3  1  0
  7  3  1  0
M  END
