Acetyl chloride
     RDKit          3D

  7  6  0  0  0  0  0  0  0  0999 V2000
    1.4929    0.7333    0.0000 C   0  0  0  0  0  0  0  0  0  0  0  0
    0.0031    0.5391    0.0000 C   0  0  0  0  0  0  0  0  0  0  0  0
   -0.8434    1.3750    0.0000 O   0  0  0  0  0  0  0  0  0  0  0  0
   -0.4607   -1.2302    0.0000 Cl  0  0  0  0  0  0  0  0  0  0  0  0
    1.7148    1.8017    0.0000 H   0  0  0  0  0  0  0  0  0  0  0  0
    1.9250    0.2527    0.8822 H   0  0  0  0  0  0  0  0  0  0  0  0
    1.9250    0.2527   -0.8822 H   0  0  0  0  0  0  0  0  0  0  0  0
  2  1  1  0
  3  2  2  0
  4  2  1  0
  5  1  1  0
  6  1  1  0
  7  1  1  0
M  END
