Acetonitrile
     RDKit          3D

  6  5  0  0  0  0  0  0  0  0999 V2000
    0.0000    0.0000   -1.1823 C   0  0  0  0  0  0  0  0  0  0  0  0
    0.0000    0.0000    0.2786 C   0  0  0  0  0  0  0  0  0  0  0  0
    0.0000    0.0000    1.4396 N   0  0  0  0  0  0  0  0  0  0  0  0
    0.0000    1.0266   -1.5595 H   0  0  0  0  0  0  0  0  0  0  0  0
    0.8890   -0.5133   -1.5595 H   0  0  0  0  0  0  0  0  0  0  0  0
   -0.8890   -0.5133   -1.5595 H   0  0  0  0  0  0  0  0  0  0  0  0
  2  1  1  0
  3  2  3  0
  4  1  1  0
  5  1  1  0
  6  1  1  0
M  END
