Cyclopropane
     RDKit          3D

  9  9  0  0  0  0  0  0  0  0999 V2000
    0.0000    0.8720    0.0000 C   0  0  0  0  0  0  0  0  0  0  0  0
    0.7551   -0.4360    0.0000 C   0  0  0  0  0  0  0  0  0  0  0  0
   -0.7551   -0.4360    0.0000 C   0  0  0  0  0  0  0  0  0  0  0  0
    0.0000    1.4634    0.9111 H   0  0  0  0  0  0  0  0  0  0  0  0
    0.0000    1.4634   -0.9111 H   0  0  0  0  0  0  0  0  0  0  0  0
    1.2673   -0.7317    0.9111 H   0  0  0  0  0  0  0  0  0  0  0  0
    1.2673   -0.7317   -0.9111 H   0  0  0  0  0  0  0  0  0  0  0  0
   -1.2673   -0.7317    0.9111 H   0  0  0  0  0  0  0  0  0  0  0  0
   -1.2673   -0.7317   -0.9111 H   0  0  0  0  0  0  0  0  0  0  0  0
  2  1  1  0
  3  2  1  0
  3  1  1  0
  4  1  1  0
  5  1  1  0
  6  2  1  0
  7  2  1  0
  8  3  1  0
  9  3  1  0
M  END
