2-Chloropropane
     RDKit          3D

 11 10  0  0  0  0  0  0  0  0999 V2000
   -0.8990    1.0302    0.0000 Cl  0  0  0  0  0  0  0  0  0  0  0  0
    0.5748   -0.0757    0.0000 C   0  0  0  0  0  0  0  0  0  0  0  0
    1.4191    0.6180    0.0000 H   0  0  0  0  0  0  0  0  0  0  0  0
    0.5757   -0.9091    1.2749 C   0  0  0  0  0  0  0  0  0  0  0  0
    0.5757   -0.9091   -1.2749 C   0  0  0  0  0  0  0  0  0  0  0  0
    1.4791   -1.5304    1.3009 H   0  0  0  0  0  0  0  0  0  0  0  0
    0.5676   -0.2757    2.1655 H   0  0  0  0  0  0  0  0  0  0  0  0
   -0.2968   -1.5688    1.3102 H   0  0  0  0  0  0  0  0  0  0  0  0
    1.4791   -1.5304   -1.3009 H   0  0  0  0  0  0  0  0  0  0  0  0
    0.5676   -0.2757   -2.1655 H   0  0  0  0  0  0  0  0  0  0  0  0
   -0.2968   -1.5688   -1.3102 H   0  0  0  0  0  0  0  0  0  0  0  0
  2  1  1  0
  3  2  1  0
  4  2  1  0
  5  2  1  0
  6  4  1  0
  7  4  1  0
  8  4  1  0
  9  5  1  0
 10  5  1  0
 11  5  1  0
M  END
