2-Chloropropene
     RDKit          3D

  9  8  0  0  0  0  0  0  0  0999 V2000
   -1.0293    1.3136    0.0000 C   0  0  0  0  0  0  0  0  0  0  0  0
    0.0009    0.4680    0.0000 C   0  0  0  0  0  0  0  0  0  0  0  0
    1.4558    0.8267    0.0000 C   0  0  0  0  0  0  0  0  0  0  0  0
   -0.3010   -1.2794    0.0000 Cl  0  0  0  0  0  0  0  0  0  0  0  0
   -2.0588    0.9758    0.0000 H   0  0  0  0  0  0  0  0  0  0  0  0
   -0.8442    2.3835    0.0000 H   0  0  0  0  0  0  0  0  0  0  0  0
    1.5743    1.9138    0.0000 H   0  0  0  0  0  0  0  0  0  0  0  0
    1.9585    0.4169    0.8829 H   0  0  0  0  0  0  0  0  0  0  0  0
    1.9585    0.4169   -0.8829 H   0  0  0  0  0  0  0  0  0  0  0  0
  2  1  2  0
  3  2  1  0
  4  2  1  0
  5  1  1  0
  6  1  1  0
  7  3  1  0
  8  3  1  0
  9  3  1  0
M  END
