Allyl chloride
     RDKit          3D

  9  8  0  0  0  0  0  0  0  0999 V2000
    2.2333   -0.2073   -0.3087 C   0  0  0  0  0  0  0  0  0  0  0  0
    1.1404   -0.1167    0.4548 C   0  0  0  0  0  0  0  0  0  0  0  0
   -0.0275    0.7502    0.1210 C   0  0  0  0  0  0  0  0  0  0  0  0
   -1.5540   -0.2417   -0.1089 Cl  0  0  0  0  0  0  0  0  0  0  0  0
    3.0760   -0.8280   -0.0204 H   0  0  0  0  0  0  0  0  0  0  0  0
    2.3227    0.3383   -1.2452 H   0  0  0  0  0  0  0  0  0  0  0  0
    1.0699   -0.6820    1.3822 H   0  0  0  0  0  0  0  0  0  0  0  0
   -0.2648    1.4472    0.9272 H   0  0  0  0  0  0  0  0  0  0  0  0
    0.1244    1.3023   -0.8072 H   0  0  0  0  0  0  0  0  0  0  0  0
  2  1  2  0
  3  2  1  0
  4  3  1  0
  5  1  1  0
  6  1  1  0
  7  2  1  0
  8  3  1  0
  9  3  1  0
M  END
