Acetone
     RDKit          3D

 10  9  0  0  0  0  0  0  0  0999 V2000
    0.0000    0.0000    1.4007 O   0  0  0  0  0  0  0  0  0  0  0  0
    0.0000    0.0000    0.1818 C   0  0  0  0  0  0  0  0  0  0  0  0
    0.0000    1.2932   -0.6137 C   0  0  0  0  0  0  0  0  0  0  0  0
    0.0000   -1.2932   -0.6137 C   0  0  0  0  0  0  0  0  0  0  0  0
   -0.0956    2.1467    0.0593 H   0  0  0  0  0  0  0  0  0  0  0  0
    0.9346    1.3805   -1.1815 H   0  0  0  0  0  0  0  0  0  0  0  0
   -0.8175    1.2997   -1.3440 H   0  0  0  0  0  0  0  0  0  0  0  0
    0.0956   -2.1467    0.0593 H   0  0  0  0  0  0  0  0  0  0  0  0
   -0.9346   -1.3805   -1.1815 H   0  0  0  0  0  0  0  0  0  0  0  0
    0.8175   -1.2997   -1.3440 H   0  0  0  0  0  0  0  0  0  0  0  0
  2  1  2  0
  3  2  1  0
  4  2  1  0
  5  3  1  0
  6  3  1  0
  7  3  1  0
  8  4  1  0
  9  4  1  0
 10  4  1  0
M  END
