Oxetane
     RDKit          3D

 10 10  0  0  0  0  0  0  0  0999 V2000
    0.0000    0.0000    1.0725 O   0  0  0  0  0  0  0  0  0  0  0  0
    0.0000    0.0000   -1.0793 C   0  0  0  0  0  0  0  0  0  0  0  0
    0.0000    1.0406    0.0618 C   0  0  0  0  0  0  0  0  0  0  0  0
    0.0000   -1.0406    0.0618 C   0  0  0  0  0  0  0  0  0  0  0  0
    0.8906    0.0000   -1.7118 H   0  0  0  0  0  0  0  0  0  0  0  0
   -0.8906    0.0000   -1.7118 H   0  0  0  0  0  0  0  0  0  0  0  0
    0.8938    1.6717    0.1350 H   0  0  0  0  0  0  0  0  0  0  0  0
   -0.8938    1.6717    0.1350 H   0  0  0  0  0  0  0  0  0  0  0  0
    0.8938   -1.6717    0.1350 H   0  0  0  0  0  0  0  0  0  0  0  0
   -0.8938   -1.6717    0.1350 H   0  0  0  0  0  0  0  0  0  0  0  0
  3  2  1  0
  3  1  1  0
  4  2  1  0
  4  1  1  0
  5  2  1  0
  6  2  1  0
  7  3  1  0
  8  3  1  0
  9  4  1  0
 10  4  1  0
M  END
