Methyl acetate Z
     RDKit          3D

 11 10  0  0  0  0  0  0  0  0999 V2000
   -1.1801    0.7726    0.0000 O   0  0  0  0  0  0  0  0  0  0  0  0
    0.0026    0.4995    0.0000 C   0  0  0  0  0  0  0  0  0  0  0  0
    1.1354    1.4957    0.0000 C   0  0  0  0  0  0  0  0  0  0  0  0
    0.4701   -0.7720    0.0000 O   0  0  0  0  0  0  0  0  0  0  0  0
   -0.5271   -1.8111    0.0000 C   0  0  0  0  0  0  0  0  0  0  0  0
    0.7288    2.5067    0.0000 H   0  0  0  0  0  0  0  0  0  0  0  0
    1.7656    1.3462    0.8819 H   0  0  0  0  0  0  0  0  0  0  0  0
    1.7656    1.3462   -0.8819 H   0  0  0  0  0  0  0  0  0  0  0  0
    0.0302   -2.7474    0.0000 H   0  0  0  0  0  0  0  0  0  0  0  0
   -1.1563   -1.7363    0.8903 H   0  0  0  0  0  0  0  0  0  0  0  0
   -1.1563   -1.7363   -0.8903 H   0  0  0  0  0  0  0  0  0  0  0  0
  2  1  2  0
  3  2  1  0
  4  2  1  0
  5  4  1  0
  6  3  1  0
  7  3  1  0
  8  3  1  0
  9  5  1  0
 10  5  1  0
 11  5  1  0
M  END
