N,N-Dimethylformamide
     RDKit          3D

 12 11  0  0  0  0  0  0  0  0999 V2000
    0.2165   -1.9476    0.0000 O   0  0  0  0  0  0  0  0  0  0  0  0
    0.7023   -0.8236    0.0000 C   0  0  0  0  0  0  0  0  0  0  0  0
    0.0000    0.3458    0.0000 N   0  0  0  0  0  0  0  0  0  0  0  0
   -1.4551    0.3331    0.0000 C   0  0  0  0  0  0  0  0  0  0  0  0
    0.6656    1.6359    0.0000 C   0  0  0  0  0  0  0  0  0  0  0  0
    1.7955   -0.6559    0.0000 H   0  0  0  0  0  0  0  0  0  0  0  0
   -1.7906   -0.7041    0.0000 H   0  0  0  0  0  0  0  0  0  0  0  0
   -1.8438    0.8423    0.8906 H   0  0  0  0  0  0  0  0  0  0  0  0
   -1.8438    0.8423   -0.8906 H   0  0  0  0  0  0  0  0  0  0  0  0
    1.7490    1.4917    0.0000 H   0  0  0  0  0  0  0  0  0  0  0  0
    0.3934    2.2180   -0.8896 H   0  0  0  0  0  0  0  0  0  0  0  0
    0.3934    2.2180    0.8896 H   0  0  0  0  0  0  0  0  0  0  0  0
  2  1  2  0
  3  2  1  0
  4  3  1  0
  5  3  1  0
  6  2  1  0
  7  4  1  0
  8  4  1  0
  9  4  1  0
 10  5  1  0
 11  5  1  0
 12  5  1  0
M  END
