1,1,1-Trichloroacetone
     RDKit          3D

 10  9  0  0  0  0  0  0  0  0999 V2000
    1.1587    0.7034   -0.0506 C   0  0  0  0  0  0  0  0  0  0  0  0
    1.1912    1.9070   -0.1028 O   0  0  0  0  0  0  0  0  0  0  0  0
   -0.2341   -0.0339   -0.0026 C   0  0  0  0  0  0  0  0  0  0  0  0
    2.3970   -0.1643   -0.0356 C   0  0  0  0  0  0  0  0  0  0  0  0
   -1.5763    1.1026   -0.2410 Cl  0  0  0  0  0  0  0  0  0  0  0  0
   -0.2675   -1.3027   -1.2867 Cl  0  0  0  0  0  0  0  0  0  0  0  0
   -0.3674   -0.8113    1.6257 Cl  0  0  0  0  0  0  0  0  0  0  0  0
    3.1993    0.3981    0.4453 H   0  0  0  0  0  0  0  0  0  0  0  0
    2.2450   -1.1201    0.4669 H   0  0  0  0  0  0  0  0  0  0  0  0
    2.6906   -0.3664   -1.0715 H   0  0  0  0  0  0  0  0  0  0  0  0
  2  1  2  0
  3  1  1  0
  4  1  1  0
  5  3  1  0
  6  3  1  0
  7  3  1  0
  8  4  1  0
  9  4  1  0
 10  4  1  0
M  END
