Cyclopropanone
     RDKit          3D

  8  8  0  0  0  0  0  0  0  0999 V2000
    0.0000    0.0000    1.5853 O   0  0  0  0  0  0  0  0  0  0  0  0
    0.0000    0.0000    0.3800 C   0  0  0  0  0  0  0  0  0  0  0  0
    0.0000    0.7883   -0.8618 C   0  0  0  0  0  0  0  0  0  0  0  0
    0.0000   -0.7883   -0.8618 C   0  0  0  0  0  0  0  0  0  0  0  0
    0.9150    1.2936   -1.1651 H   0  0  0  0  0  0  0  0  0  0  0  0
   -0.9150    1.2936   -1.1651 H   0  0  0  0  0  0  0  0  0  0  0  0
   -0.9150   -1.2936   -1.1651 H   0  0  0  0  0  0  0  0  0  0  0  0
    0.9150   -1.2936   -1.1651 H   0  0  0  0  0  0  0  0  0  0  0  0
  2  1  2  0
  3  2  1  0
  4  3  1  0
  4  2  1  0
  5  3  1  0
  6  3  1  0
  7  4  1  0
  8  4  1  0
M  END
