Propionitrile
     RDKit          3D

  9  8  0  0  0  0  0  0  0  0999 V2000
   -1.3737   -1.4277    0.0000 N   0  0  0  0  0  0  0  0  0  0  0  0
   -0.7736   -0.4332    0.0000 C   0  0  0  0  0  0  0  0  0  0  0  0
    0.0006    0.8126    0.0000 C   0  0  0  0  0  0  0  0  0  0  0  0
    1.5213    0.5681    0.0000 C   0  0  0  0  0  0  0  0  0  0  0  0
   -0.2957    1.3952    0.8799 H   0  0  0  0  0  0  0  0  0  0  0  0
   -0.2957    1.3952   -0.8799 H   0  0  0  0  0  0  0  0  0  0  0  0
    2.0482    1.5265    0.0000 H   0  0  0  0  0  0  0  0  0  0  0  0
    1.8280    0.0055    0.8858 H   0  0  0  0  0  0  0  0  0  0  0  0
    1.8280    0.0055   -0.8858 H   0  0  0  0  0  0  0  0  0  0  0  0
  2  1  3  0
  3  2  1  0
  4  3  1  0
  5  3  1  0
  6  3  1  0
  7  4  1  0
  8  4  1  0
  9  4  1  0
M  END
