2-Chloropropanitrile
     RDKit          3D

  9  8  0  0  0  0  0  0  0  0999 V2000
    0.1035    1.7484   -0.1813 C   0  0  0  0  0  0  0  0  0  0  0  0
   -0.0265    0.3562    0.4387 C   0  0  1  0  0  0  0  0  0  0  0  0
   -1.2942   -0.2907    0.0932 C   0  0  0  0  0  0  0  0  0  0  0  0
   -2.3168   -0.7717   -0.1732 N   0  0  0  0  0  0  0  0  0  0  0  0
    1.3572   -0.7177   -0.0832 Cl  0  0  0  0  0  0  0  0  0  0  0  0
    1.0532    2.1965    0.1185 H   0  0  0  0  0  0  0  0  0  0  0  0
    0.0626    1.6925   -1.2712 H   0  0  0  0  0  0  0  0  0  0  0  0
   -0.7166    2.3821    0.1714 H   0  0  0  0  0  0  0  0  0  0  0  0
    0.0487    0.4059    1.5275 H   0  0  0  0  0  0  0  0  0  0  0  0
  2  1  1  0
  3  2  1  0
  4  3  3  0
  5  2  1  0
  6  1  1  0
  7  1  1  0
  8  1  1  0
  2  9  1  1
M  END
