Isoxazole
     RDKit          3D

  8  8  0  0  0  0  0  0  0  0999 V2000
   -0.0011    1.1303    0.0000 C   0  0  0  0  0  0  0  0  0  0  0  0
    1.1277    0.3684    0.0000 C   0  0  0  0  0  0  0  0  0  0  0  0
    0.6190   -0.9630    0.0000 C   0  0  0  0  0  0  0  0  0  0  0  0
   -0.6934   -0.9959    0.0000 N   0  0  0  0  0  0  0  0  0  0  0  0
   -1.0945    0.3457    0.0000 O   0  0  0  0  0  0  0  0  0  0  0  0
   -0.1842    2.1950    0.0000 H   0  0  0  0  0  0  0  0  0  0  0  0
    2.1559    0.6952    0.0000 H   0  0  0  0  0  0  0  0  0  0  0  0
    1.1646   -1.8979    0.0000 H   0  0  0  0  0  0  0  0  0  0  0  0
  2  1  2  0
  3  2  1  0
  4  3  2  0
  5  4  1  0
  5  1  1  0
  6  1  1  0
  7  2  1  0
  8  3  1  0
M  END
