Isobutylene
     RDKit          3D

 12 11  0  0  0  0  0  0  0  0999 V2000
    0.0000    0.0000    0.1230 C   0  0  0  0  0  0  0  0  0  0  0  0
    0.0000    0.0000    1.4629 C   0  0  0  0  0  0  0  0  0  0  0  0
    0.0000    1.2777   -0.6802 C   0  0  0  0  0  0  0  0  0  0  0  0
    0.0000   -1.2777   -0.6802 C   0  0  0  0  0  0  0  0  0  0  0  0
    0.0000   -0.9250    2.0337 H   0  0  0  0  0  0  0  0  0  0  0  0
    0.0000    0.9250    2.0337 H   0  0  0  0  0  0  0  0  0  0  0  0
    0.0000    2.1628   -0.0378 H   0  0  0  0  0  0  0  0  0  0  0  0
    0.8800    1.3291   -1.3350 H   0  0  0  0  0  0  0  0  0  0  0  0
   -0.8800    1.3291   -1.3350 H   0  0  0  0  0  0  0  0  0  0  0  0
    0.0000   -2.1628   -0.0378 H   0  0  0  0  0  0  0  0  0  0  0  0
   -0.8800   -1.3291   -1.3350 H   0  0  0  0  0  0  0  0  0  0  0  0
    0.8800   -1.3291   -1.3350 H   0  0  0  0  0  0  0  0  0  0  0  0
  2  1  2  0
  3  1  1  0
  4  1  1  0
  5  2  1  0
  6  2  1  0
  7  3  1  0
  8  3  1  0
  9  3  1  0
 10  4  1  0
 11  4  1  0
 12  4  1  0
M  END
