Cyclobutane
     RDKit          3D

 12 12  0  0  0  0  0  0  0  0999 V2000
    0.0000    1.0848    0.1255 C   0  0  0  0  0  0  0  0  0  0  0  0
    1.0848    0.0000   -0.1255 C   0  0  0  0  0  0  0  0  0  0  0  0
    0.0000   -1.0848    0.1255 C   0  0  0  0  0  0  0  0  0  0  0  0
   -1.0848    0.0000   -0.1255 C   0  0  0  0  0  0  0  0  0  0  0  0
    0.0000    1.4218    1.1678 H   0  0  0  0  0  0  0  0  0  0  0  0
    1.4218    0.0000   -1.1678 H   0  0  0  0  0  0  0  0  0  0  0  0
    0.0000   -1.4218    1.1678 H   0  0  0  0  0  0  0  0  0  0  0  0
   -1.4218    0.0000   -1.1678 H   0  0  0  0  0  0  0  0  0  0  0  0
    0.0000    1.9669   -0.5229 H   0  0  0  0  0  0  0  0  0  0  0  0
    1.9669    0.0000    0.5229 H   0  0  0  0  0  0  0  0  0  0  0  0
    0.0000   -1.9669   -0.5229 H   0  0  0  0  0  0  0  0  0  0  0  0
   -1.9669    0.0000    0.5229 H   0  0  0  0  0  0  0  0  0  0  0  0
  2  1  1  0
  3  2  1  0
  4  3  1  0
  4  1  1  0
  5  1  1  0
  6  2  1  0
  7  3  1  0
  8  4  1  0
  9  1  1  0
 10  2  1  0
 11  3  1  0
 12  4  1  0
M  END
