2-Butyne
     RDKit          3D

 10  9  0  0  0  0  0  0  0  0999 V2000
    0.0000    0.0000    0.6059 C   0  0  0  0  0  0  0  0  0  0  0  0
    0.0000    0.0000   -0.6059 C   0  0  0  0  0  0  0  0  0  0  0  0
    0.0000    0.0000    2.0683 C   0  0  0  0  0  0  0  0  0  0  0  0
    0.0000    0.0000   -2.0683 C   0  0  0  0  0  0  0  0  0  0  0  0
    0.0000    1.0216    2.4649 H   0  0  0  0  0  0  0  0  0  0  0  0
   -0.8848   -0.5108    2.4649 H   0  0  0  0  0  0  0  0  0  0  0  0
    0.8848   -0.5108    2.4649 H   0  0  0  0  0  0  0  0  0  0  0  0
    0.0000    1.0216   -2.4649 H   0  0  0  0  0  0  0  0  0  0  0  0
    0.8848   -0.5108   -2.4649 H   0  0  0  0  0  0  0  0  0  0  0  0
   -0.8848   -0.5108   -2.4649 H   0  0  0  0  0  0  0  0  0  0  0  0
  2  1  3  0
  3  1  1  0
  4  2  1  0
  5  3  1  0
  6  3  1  0
  7  3  1  0
  8  4  1  0
  9  4  1  0
 10  4  1  0
M  END
