Cyclobutene
     RDKit          3D

 10 10  0  0  0  0  0  0  0  0999 V2000
    0.0000    0.6717    0.8149 C   0  0  0  0  0  0  0  0  0  0  0  0
    0.0000   -0.6717    0.8149 C   0  0  0  0  0  0  0  0  0  0  0  0
    0.0000    0.7871   -0.7005 C   0  0  0  0  0  0  0  0  0  0  0  0
    0.0000   -0.7871   -0.7005 C   0  0  0  0  0  0  0  0  0  0  0  0
    0.0000    1.4207    1.6019 H   0  0  0  0  0  0  0  0  0  0  0  0
    0.0000   -1.4207    1.6019 H   0  0  0  0  0  0  0  0  0  0  0  0
   -0.8899    1.2476   -1.1459 H   0  0  0  0  0  0  0  0  0  0  0  0
    0.8899    1.2476   -1.1459 H   0  0  0  0  0  0  0  0  0  0  0  0
    0.8899   -1.2476   -1.1459 H   0  0  0  0  0  0  0  0  0  0  0  0
   -0.8899   -1.2476   -1.1459 H   0  0  0  0  0  0  0  0  0  0  0  0
  2  1  2  0
  3  1  1  0
  4  3  1  0
  4  2  1  0
  5  1  1  0
  6  2  1  0
  7  3  1  0
  8  3  1  0
  9  4  1  0
 10  4  1  0
M  END
