Bicyclobutane
     RDKit          3D

 10 11  0  0  0  0  0  0  0  0999 V2000
    0.7473    0.0000   -0.3181 C   0  0  1  0  0  0  0  0  0  0  0  0
   -0.7473    0.0000   -0.3181 C   0  0  2  0  0  0  0  0  0  0  0  0
    0.0000    1.1385    0.3127 C   0  0  0  0  0  0  0  0  0  0  0  0
    0.0000   -1.1385    0.3127 C   0  0  0  0  0  0  0  0  0  0  0  0
    1.4319    0.0000   -1.1543 H   0  0  0  0  0  0  0  0  0  0  0  0
   -1.4319    0.0000   -1.1543 H   0  0  0  0  0  0  0  0  0  0  0  0
    0.0000    2.0866   -0.2235 H   0  0  0  0  0  0  0  0  0  0  0  0
    0.0000    1.2420    1.4014 H   0  0  0  0  0  0  0  0  0  0  0  0
    0.0000   -2.0866   -0.2235 H   0  0  0  0  0  0  0  0  0  0  0  0
    0.0000   -1.2420    1.4014 H   0  0  0  0  0  0  0  0  0  0  0  0
  2  1  1  0
  3  2  1  0
  3  1  1  0
  4  2  1  0
  4  1  1  0
  1  5  1  6
  2  6  1  6
  7  3  1  0
  8  3  1  0
  9  4  1  0
 10  4  1  0
M  END
