t-Butyl chloride
     RDKit          3D

 14 13  0  0  0  0  0  0  0  0999 V2000
    0.0000   -0.0008    1.4955 Cl  0  0  0  0  0  0  0  0  0  0  0  0
    0.0000   -0.0000   -0.3699 C   0  0  0  0  0  0  0  0  0  0  0  0
    0.0000    1.4621   -0.8170 C   0  0  0  0  0  0  0  0  0  0  0  0
    1.2659   -0.7309   -0.8179 C   0  0  0  0  0  0  0  0  0  0  0  0
   -1.2659   -0.7309   -0.8179 C   0  0  0  0  0  0  0  0  0  0  0  0
    0.0000    1.5054   -1.9132 H   0  0  0  0  0  0  0  0  0  0  0  0
   -0.8872    1.9867   -0.4522 H   0  0  0  0  0  0  0  0  0  0  0  0
    0.8872    1.9867   -0.4522 H   0  0  0  0  0  0  0  0  0  0  0  0
    1.3017   -0.7541   -1.9140 H   0  0  0  0  0  0  0  0  0  0  0  0
    2.1640   -0.2239   -0.4550 H   0  0  0  0  0  0  0  0  0  0  0  0
    1.2774   -1.7611   -0.4518 H   0  0  0  0  0  0  0  0  0  0  0  0
   -1.3017   -0.7541   -1.9140 H   0  0  0  0  0  0  0  0  0  0  0  0
   -1.2774   -1.7611   -0.4518 H   0  0  0  0  0  0  0  0  0  0  0  0
   -2.1640   -0.2239   -0.4550 H   0  0  0  0  0  0  0  0  0  0  0  0
  2  1  1  0
  3  2  1  0
  4  2  1  0
  5  2  1  0
  6  3  1  0
  7  3  1  0
  8  3  1  0
  9  4  1  0
 10  4  1  0
 11  4  1  0
 12  5  1  0
 13  5  1  0
 14  5  1  0
M  END
