2-Methyl-2-nitropropane
     RDKit          3D

 16 15  0  0  0  0  0  0  0  0999 V2000
   -0.1502   -0.9812    0.0000 N   0  0  0  0  0  0  0  0  0  0  0  0
    0.0646    0.5585    0.0000 C   0  0  0  0  0  0  0  0  0  0  0  0
   -1.2971    1.2498    0.0000 C   0  0  0  0  0  0  0  0  0  0  0  0
    0.8665    0.8775    1.2701 C   0  0  0  0  0  0  0  0  0  0  0  0
    0.8665    0.8775   -1.2701 C   0  0  0  0  0  0  0  0  0  0  0  0
   -1.2983   -1.4167    0.0000 O   0  0  0  0  0  0  0  0  0  0  0  0
    0.8608   -1.6809    0.0000 O   0  0  0  0  0  0  0  0  0  0  0  0
   -1.1326    2.3320    0.0000 H   0  0  0  0  0  0  0  0  0  0  0  0
   -1.8821    0.9887   -0.8847 H   0  0  0  0  0  0  0  0  0  0  0  0
   -1.8821    0.9887    0.8847 H   0  0  0  0  0  0  0  0  0  0  0  0
    1.0541    1.9547    1.3071 H   0  0  0  0  0  0  0  0  0  0  0  0
    0.3088    0.5978    2.1693 H   0  0  0  0  0  0  0  0  0  0  0  0
    1.8243    0.3535    1.2714 H   0  0  0  0  0  0  0  0  0  0  0  0
    1.0541    1.9547   -1.3071 H   0  0  0  0  0  0  0  0  0  0  0  0
    0.3088    0.5978   -2.1693 H   0  0  0  0  0  0  0  0  0  0  0  0
    1.8243    0.3535   -1.2714 H   0  0  0  0  0  0  0  0  0  0  0  0
  2  1  1  0
  3  2  1  0
  4  2  1  0
  5  2  1  0
  6  1  2  0
  7  1  1  0
  8  3  1  0
  9  3  1  0
 10  3  1  0
 11  4  1  0
 12  4  1  0
 13  4  1  0
 14  5  1  0
 15  5  1  0
 16  5  1  0
M  CHG  2   1   1   7  -1
M  END
