1-Chloro-2-methyl-1-propene
     RDKit          3D

 12 11  0  0  0  0  0  0  0  0999 V2000
   -0.0010    0.7836    0.0000 C   0  0  0  0  0  0  0  0  0  0  0  0
    0.8066   -0.2828    0.0000 C   0  0  0  0  0  0  0  0  0  0  0  0
    2.3019   -0.0674    0.0000 C   0  0  0  0  0  0  0  0  0  0  0  0
    0.3420   -1.7134    0.0000 C   0  0  0  0  0  0  0  0  0  0  0  0
   -1.7581    0.7183    0.0000 Cl  0  0  0  0  0  0  0  0  0  0  0  0
    0.3621    1.8043    0.0000 H   0  0  0  0  0  0  0  0  0  0  0  0
    2.5678    0.9933    0.0000 H   0  0  0  0  0  0  0  0  0  0  0  0
    2.7595   -0.5343    0.8816 H   0  0  0  0  0  0  0  0  0  0  0  0
    2.7595   -0.5343   -0.8816 H   0  0  0  0  0  0  0  0  0  0  0  0
   -0.7455   -1.7987    0.0000 H   0  0  0  0  0  0  0  0  0  0  0  0
    0.7317   -2.2399   -0.8807 H   0  0  0  0  0  0  0  0  0  0  0  0
    0.7317   -2.2399    0.8807 H   0  0  0  0  0  0  0  0  0  0  0  0
  2  1  2  0
  3  2  1  0
  4  2  1  0
  5  1  1  0
  6  1  1  0
  7  3  1  0
  8  3  1  0
  9  3  1  0
 10  4  1  0
 11  4  1  0
 12  4  1  0
M  END
