THF
     RDKit          3D

 13 13  0  0  0  0  0  0  0  0999 V2000
    0.0000    0.0000    1.2521 O   0  0  0  0  0  0  0  0  0  0  0  0
   -0.0017    1.1781    0.4292 C   0  0  0  0  0  0  0  0  0  0  0  0
    0.0017   -1.1781    0.4292 C   0  0  0  0  0  0  0  0  0  0  0  0
   -0.3069    0.7047   -0.9977 C   0  0  0  0  0  0  0  0  0  0  0  0
    0.3069   -0.7047   -0.9977 C   0  0  0  0  0  0  0  0  0  0  0  0
   -0.7477    1.8753    0.8251 H   0  0  0  0  0  0  0  0  0  0  0  0
    0.7477   -1.8753    0.8251 H   0  0  0  0  0  0  0  0  0  0  0  0
    0.9864    1.6578    0.4879 H   0  0  0  0  0  0  0  0  0  0  0  0
   -0.9864   -1.6578    0.4879 H   0  0  0  0  0  0  0  0  0  0  0  0
   -1.3896    0.6488   -1.1601 H   0  0  0  0  0  0  0  0  0  0  0  0
    1.3896   -0.6488   -1.1601 H   0  0  0  0  0  0  0  0  0  0  0  0
    0.1175    1.3642   -1.7605 H   0  0  0  0  0  0  0  0  0  0  0  0
   -0.1175   -1.3642   -1.7605 H   0  0  0  0  0  0  0  0  0  0  0  0
  2  1  1  0
  3  1  1  0
  4  2  1  0
  5  4  1  0
  5  3  1  0
  6  2  1  0
  7  3  1  0
  8  2  1  0
  9  3  1  0
 10  4  1  0
 11  5  1  0
 12  4  1  0
 13  5  1  0
M  END
