N,N-Dimethylacetamide ((Me)2NCOCH3))
     RDKit          3D

 15 14  0  0  0  0  0  0  0  0999 V2000
    1.0730   -1.4723    0.0001 O   0  0  0  0  0  0  0  0  0  0  0  0
    0.7303   -0.2893   -0.0000 C   0  0  0  0  0  0  0  0  0  0  0  0
   -0.5941    0.0812   -0.0002 N   0  0  0  0  0  0  0  0  0  0  0  0
   -1.6261   -0.9479   -0.0000 C   0  0  0  0  0  0  0  0  0  0  0  0
   -1.0830    1.4507    0.0001 C   0  0  0  0  0  0  0  0  0  0  0  0
    1.7800    0.8150   -0.0000 C   0  0  0  0  0  0  0  0  0  0  0  0
   -1.1462   -1.9251   -0.0004 H   0  0  0  0  0  0  0  0  0  0  0  0
   -2.2608   -0.8524    0.8904 H   0  0  0  0  0  0  0  0  0  0  0  0
   -2.2615   -0.8520   -0.8899 H   0  0  0  0  0  0  0  0  0  0  0  0
   -0.2629    2.1656   -0.0008 H   0  0  0  0  0  0  0  0  0  0  0  0
   -1.7027    1.6377   -0.8873 H   0  0  0  0  0  0  0  0  0  0  0  0
   -1.7010    1.6380    0.8886 H   0  0  0  0  0  0  0  0  0  0  0  0
    2.7555    0.3295    0.0000 H   0  0  0  0  0  0  0  0  0  0  0  0
    1.7027    1.4539   -0.8862 H   0  0  0  0  0  0  0  0  0  0  0  0
    1.7026    1.4540    0.8861 H   0  0  0  0  0  0  0  0  0  0  0  0
  2  1  2  0
  3  2  1  0
  4  3  1  0
  5  3  1  0
  6  2  1  0
  7  4  1  0
  8  4  1  0
  9  4  1  0
 10  5  1  0
 11  5  1  0
 12  5  1  0
 13  6  1  0
 14  6  1  0
 15  6  1  0
M  END
