Cyclobutanone
     RDKit          3D

 11 11  0  0  0  0  0  0  0  0999 V2000
    0.0000    0.0000    1.8809 O   0  0  0  0  0  0  0  0  0  0  0  0
    0.0000    0.0000    0.6747 C   0  0  0  0  0  0  0  0  0  0  0  0
    0.0000    1.1113   -0.3860 C   0  0  0  0  0  0  0  0  0  0  0  0
    0.0000   -1.1113   -0.3860 C   0  0  0  0  0  0  0  0  0  0  0  0
    0.0000    0.0000   -1.4831 C   0  0  0  0  0  0  0  0  0  0  0  0
   -0.8876    1.7523   -0.3470 H   0  0  0  0  0  0  0  0  0  0  0  0
    0.8876    1.7523   -0.3470 H   0  0  0  0  0  0  0  0  0  0  0  0
   -0.8876   -1.7523   -0.3470 H   0  0  0  0  0  0  0  0  0  0  0  0
    0.8876   -1.7523   -0.3470 H   0  0  0  0  0  0  0  0  0  0  0  0
   -0.8873    0.0000   -2.1200 H   0  0  0  0  0  0  0  0  0  0  0  0
    0.8873    0.0000   -2.1200 H   0  0  0  0  0  0  0  0  0  0  0  0
  2  1  2  0
  3  2  1  0
  4  2  1  0
  5  4  1  0
  5  3  1  0
  6  3  1  0
  7  3  1  0
  8  4  1  0
  9  4  1  0
 10  5  1  0
 11  5  1  0
M  END
