gamma-Butyrolactone (C4H6O2)
     RDKit          3D

 12 12  0  0  0  0  0  0  0  0999 V2000
    0.8885   -0.0005    0.0075 C   0  0  0  0  0  0  0  0  0  0  0  0
   -0.0263    1.2097    0.1652 C   0  0  0  0  0  0  0  0  0  0  0  0
   -1.4090    0.6696   -0.2171 C   0  0  0  0  0  0  0  0  0  0  0  0
   -1.2739   -0.8234    0.1252 C   0  0  0  0  0  0  0  0  0  0  0  0
    0.1288   -1.1343   -0.0441 O   0  0  0  0  0  0  0  0  0  0  0  0
    2.0916   -0.0276   -0.0600 O   0  0  0  0  0  0  0  0  0  0  0  0
    0.0197    1.5283    1.2140 H   0  0  0  0  0  0  0  0  0  0  0  0
    0.3354    2.0371   -0.4478 H   0  0  0  0  0  0  0  0  0  0  0  0
   -2.2340    1.1439    0.3202 H   0  0  0  0  0  0  0  0  0  0  0  0
   -1.5847    0.7964   -1.2903 H   0  0  0  0  0  0  0  0  0  0  0  0
   -1.5466   -1.0372    1.1654 H   0  0  0  0  0  0  0  0  0  0  0  0
   -1.8371   -1.4862   -0.5341 H   0  0  0  0  0  0  0  0  0  0  0  0
  2  1  1  0
  3  2  1  0
  4  3  1  0
  5  4  1  0
  5  1  1  0
  6  1  2  0
  7  2  1  0
  8  2  1  0
  9  3  1  0
 10  3  1  0
 11  4  1  0
 12  4  1  0
M  END
