2-Methyl-2-cyanopropane
     RDKit          3D

 12 11  0  0  0  0  0  0  0  0999 V2000
   -0.3989   -2.1888    0.0000 N   0  0  0  0  0  0  0  0  0  0  0  0
   -0.0257   -1.0883    0.0000 C   0  0  0  0  0  0  0  0  0  0  0  0
    0.4363    0.3102    0.0000 C   0  0  0  0  0  0  0  0  0  0  0  0
   -0.0280    1.0330    1.2809 C   0  0  0  0  0  0  0  0  0  0  0  0
   -0.0280    1.0330   -1.2809 C   0  0  0  0  0  0  0  0  0  0  0  0
    1.5338    0.2712    0.0000 H   0  0  0  0  0  0  0  0  0  0  0  0
    0.3241    0.5177    2.1787 H   0  0  0  0  0  0  0  0  0  0  0  0
    0.3679    2.0532    1.2891 H   0  0  0  0  0  0  0  0  0  0  0  0
   -1.1202    1.0866    1.3215 H   0  0  0  0  0  0  0  0  0  0  0  0
    0.3241    0.5177   -2.1787 H   0  0  0  0  0  0  0  0  0  0  0  0
    0.3679    2.0532   -1.2891 H   0  0  0  0  0  0  0  0  0  0  0  0
   -1.1202    1.0866   -1.3215 H   0  0  0  0  0  0  0  0  0  0  0  0
  2  1  3  0
  3  2  1  0
  4  3  1  0
  5  3  1  0
  6  3  1  0
  7  4  1  0
  8  4  1  0
  9  4  1  0
 10  5  1  0
 11  5  1  0
 12  5  1  0
M  END
