Furan
     RDKit          3D

  9  9  0  0  0  0  0  0  0  0999 V2000
    0.0000    0.0000    1.1615 O   0  0  0  0  0  0  0  0  0  0  0  0
    0.0000    1.0975    0.3486 C   0  0  0  0  0  0  0  0  0  0  0  0
    0.0000   -1.0975    0.3486 C   0  0  0  0  0  0  0  0  0  0  0  0
    0.0000    0.7185   -0.9604 C   0  0  0  0  0  0  0  0  0  0  0  0
    0.0000   -0.7185   -0.9604 C   0  0  0  0  0  0  0  0  0  0  0  0
    0.0000    2.0529    0.8492 H   0  0  0  0  0  0  0  0  0  0  0  0
    0.0000   -2.0529    0.8492 H   0  0  0  0  0  0  0  0  0  0  0  0
    0.0000    1.3749   -1.8188 H   0  0  0  0  0  0  0  0  0  0  0  0
    0.0000   -1.3749   -1.8188 H   0  0  0  0  0  0  0  0  0  0  0  0
  2  1  1  0
  3  1  1  0
  4  2  2  0
  5  4  1  0
  5  3  2  0
  6  2  1  0
  7  3  1  0
  8  4  1  0
  9  5  1  0
M  END
