3-Butyn-2-one
     RDKit          3D

  9  8  0  0  0  0  0  0  0  0999 V2000
    1.4965    0.7440    0.0000 C   0  0  0  0  0  0  0  0  0  0  0  0
    0.0054    0.4919    0.0000 C   0  0  0  0  0  0  0  0  0  0  0  0
   -0.8229    1.3885    0.0000 O   0  0  0  0  0  0  0  0  0  0  0  0
   -0.4091   -0.9073    0.0000 C   0  0  0  0  0  0  0  0  0  0  0  0
   -0.7444   -2.0715    0.0000 C   0  0  0  0  0  0  0  0  0  0  0  0
    1.6839    1.8190    0.0000 H   0  0  0  0  0  0  0  0  0  0  0  0
    1.9554    0.2818    0.8814 H   0  0  0  0  0  0  0  0  0  0  0  0
    1.9554    0.2818   -0.8814 H   0  0  0  0  0  0  0  0  0  0  0  0
   -1.0607   -3.0909    0.0000 H   0  0  0  0  0  0  0  0  0  0  0  0
  2  1  1  0
  3  2  2  0
  4  2  1  0
  5  4  3  0
  6  1  1  0
  7  1  1  0
  8  1  1  0
  9  5  1  0
M  END
