Thiophene
     RDKit          3D

  9  9  0  0  0  0  0  0  0  0999 V2000
    0.0000    0.0000    1.2008 S   0  0  0  0  0  0  0  0  0  0  0  0
    0.0000    1.2435   -0.0105 C   0  0  0  0  0  0  0  0  0  0  0  0
    0.0000   -1.2435   -0.0105 C   0  0  0  0  0  0  0  0  0  0  0  0
    0.0000    0.7154   -1.2747 C   0  0  0  0  0  0  0  0  0  0  0  0
    0.0000   -0.7154   -1.2747 C   0  0  0  0  0  0  0  0  0  0  0  0
    0.0000    2.2844    0.2825 H   0  0  0  0  0  0  0  0  0  0  0  0
    0.0000   -2.2844    0.2825 H   0  0  0  0  0  0  0  0  0  0  0  0
    0.0000    1.3213   -2.1738 H   0  0  0  0  0  0  0  0  0  0  0  0
    0.0000   -1.3213   -2.1738 H   0  0  0  0  0  0  0  0  0  0  0  0
  2  1  1  0
  3  1  1  0
  4  2  2  0
  5  4  1  0
  5  3  2  0
  6  2  1  0
  7  3  1  0
  8  4  1  0
  9  5  1  0
M  END
