2,3-Dichloro-2,3-dehydrobutyrolactone
     RDKit          3D

 10 10  0  0  0  0  0  0  0  0999 V2000
    1.4834    0.6505    0.0000 C   0  0  0  0  0  0  0  0  0  0  0  0
    0.0004    0.4868    0.0000 C   0  0  0  0  0  0  0  0  0  0  0  0
   -0.2803   -0.8237    0.0000 C   0  0  0  0  0  0  0  0  0  0  0  0
    1.0015   -1.6071    0.0000 C   0  0  0  0  0  0  0  0  0  0  0  0
    2.0333   -0.6106    0.0000 O   0  0  0  0  0  0  0  0  0  0  0  0
    2.1401    1.6562    0.0000 O   0  0  0  0  0  0  0  0  0  0  0  0
   -1.0645    1.8253    0.0000 Cl  0  0  0  0  0  0  0  0  0  0  0  0
   -1.8098   -1.5983    0.0000 Cl  0  0  0  0  0  0  0  0  0  0  0  0
    1.1077   -2.2329    0.8929 H   0  0  0  0  0  0  0  0  0  0  0  0
    1.1077   -2.2329   -0.8929 H   0  0  0  0  0  0  0  0  0  0  0  0
  2  1  1  0
  3  2  2  0
  4  3  1  0
  5  4  1  0
  5  1  1  0
  6  1  2  0
  7  2  1  0
  8  3  1  0
  9  4  1  0
 10  4  1  0
M  END
