Methylthiazole
     RDKit          3D

 11 11  0  0  0  0  0  0  0  0999 V2000
    1.2415    0.3416    0.0000 N   0  0  0  0  0  0  0  0  0  0  0  0
    1.1268   -0.9538    0.0000 C   0  0  0  0  0  0  0  0  0  0  0  0
   -0.5134   -1.5543    0.0000 S   0  0  0  0  0  0  0  0  0  0  0  0
   -1.0635    0.0911    0.0000 C   0  0  0  0  0  0  0  0  0  0  0  0
   -0.0000    0.9558    0.0000 C   0  0  0  0  0  0  0  0  0  0  0  0
   -0.0735    2.4540    0.0000 C   0  0  0  0  0  0  0  0  0  0  0  0
    1.9665   -1.6385    0.0000 H   0  0  0  0  0  0  0  0  0  0  0  0
   -2.1182    0.3278    0.0000 H   0  0  0  0  0  0  0  0  0  0  0  0
   -1.1104    2.7995    0.0000 H   0  0  0  0  0  0  0  0  0  0  0  0
    0.4302    2.8633    0.8823 H   0  0  0  0  0  0  0  0  0  0  0  0
    0.4302    2.8633   -0.8823 H   0  0  0  0  0  0  0  0  0  0  0  0
  2  1  2  0
  3  2  1  0
  4  3  1  0
  5  4  2  0
  5  1  1  0
  6  5  1  0
  7  2  1  0
  8  4  1  0
  9  6  1  0
 10  6  1  0
 11  6  1  0
M  END
