Pyrimidine
     RDKit          3D

 10 10  0  0  0  0  0  0  0  0999 V2000
    0.0000    0.0000   -2.3998 H   0  0  0  0  0  0  0  0  0  0  0  0
    0.0000    0.0000   -1.3125 C   0  0  0  0  0  0  0  0  0  0  0  0
    0.0000    1.1983   -0.7159 N   0  0  0  0  0  0  0  0  0  0  0  0
    0.0000   -1.1983   -0.7159 N   0  0  0  0  0  0  0  0  0  0  0  0
    0.0000    1.1861    0.6238 C   0  0  0  0  0  0  0  0  0  0  0  0
    0.0000   -1.1861    0.6238 C   0  0  0  0  0  0  0  0  0  0  0  0
    0.0000    0.0000    1.3574 C   0  0  0  0  0  0  0  0  0  0  0  0
    0.0000    2.1557    1.1175 H   0  0  0  0  0  0  0  0  0  0  0  0
    0.0000   -2.1557    1.1175 H   0  0  0  0  0  0  0  0  0  0  0  0
    0.0000    0.0000    2.4423 H   0  0  0  0  0  0  0  0  0  0  0  0
  2  1  1  0
  3  2  2  0
  4  2  1  0
  5  3  1  0
  6  4  2  0
  7  6  1  0
  7  5  2  0
  8  5  1  0
  9  6  1  0
 10  7  1  0
M  END
