1,4-Pyrazine
     RDKit          3D

 10 10  0  0  0  0  0  0  0  0999 V2000
    0.0000    0.0000    1.4090 N   0  0  0  0  0  0  0  0  0  0  0  0
    0.0000    0.0000   -1.4090 N   0  0  0  0  0  0  0  0  0  0  0  0
    0.0000    1.1350    0.6992 C   0  0  0  0  0  0  0  0  0  0  0  0
    0.0000   -1.1350    0.6992 C   0  0  0  0  0  0  0  0  0  0  0  0
    0.0000    1.1350   -0.6992 C   0  0  0  0  0  0  0  0  0  0  0  0
    0.0000   -1.1350   -0.6992 C   0  0  0  0  0  0  0  0  0  0  0  0
    0.0000    2.0685    1.2571 H   0  0  0  0  0  0  0  0  0  0  0  0
    0.0000   -2.0685    1.2571 H   0  0  0  0  0  0  0  0  0  0  0  0
    0.0000    2.0685   -1.2571 H   0  0  0  0  0  0  0  0  0  0  0  0
    0.0000   -2.0685   -1.2571 H   0  0  0  0  0  0  0  0  0  0  0  0
  3  1  2  0
  4  1  1  0
  5  3  1  0
  5  2  2  0
  6  4  2  0
  6  2  1  0
  7  3  1  0
  8  4  1  0
  9  5  1  0
 10  6  1  0
M  END
