1,2-Pyrazine
     RDKit          3D

 10 10  0  0  0  0  0  0  0  0999 V2000
    0.0000    0.6926    1.1815 C   0  0  0  0  0  0  0  0  0  0  0  0
    0.0000   -0.6926    1.1815 C   0  0  0  0  0  0  0  0  0  0  0  0
    0.0000    1.3252   -0.0675 C   0  0  0  0  0  0  0  0  0  0  0  0
    0.0000   -1.3252   -0.0675 C   0  0  0  0  0  0  0  0  0  0  0  0
    0.0000    0.6675   -1.2317 N   0  0  0  0  0  0  0  0  0  0  0  0
    0.0000   -0.6675   -1.2317 N   0  0  0  0  0  0  0  0  0  0  0  0
    0.0000    1.2724    2.0993 H   0  0  0  0  0  0  0  0  0  0  0  0
    0.0000   -1.2724    2.0993 H   0  0  0  0  0  0  0  0  0  0  0  0
    0.0000    2.4083   -0.1537 H   0  0  0  0  0  0  0  0  0  0  0  0
    0.0000   -2.4083   -0.1537 H   0  0  0  0  0  0  0  0  0  0  0  0
  2  1  1  0
  3  1  2  0
  4  2  2  0
  5  3  1  0
  6  5  2  0
  6  4  1  0
  7  1  1  0
  8  2  1  0
  9  3  1  0
 10  4  1  0
M  END
