Cyclopentane
     RDKit          3D

 15 15  0  0  0  0  0  0  0  0999 V2000
    0.0000    0.0000    1.3091 C   0  0  0  0  0  0  0  0  0  0  0  0
   -0.0009    1.2439    0.3724 C   0  0  0  0  0  0  0  0  0  0  0  0
    0.0009   -1.2439    0.3724 C   0  0  0  0  0  0  0  0  0  0  0  0
   -0.3267    0.6960   -1.0319 C   0  0  0  0  0  0  0  0  0  0  0  0
    0.3267   -0.6960   -1.0319 C   0  0  0  0  0  0  0  0  0  0  0  0
    0.8774    0.0067    1.9645 H   0  0  0  0  0  0  0  0  0  0  0  0
   -0.8774   -0.0067    1.9645 H   0  0  0  0  0  0  0  0  0  0  0  0
   -0.7054    2.0162    0.6987 H   0  0  0  0  0  0  0  0  0  0  0  0
    0.9938    1.7061    0.3613 H   0  0  0  0  0  0  0  0  0  0  0  0
    0.7054   -2.0162    0.6987 H   0  0  0  0  0  0  0  0  0  0  0  0
   -0.9938   -1.7061    0.3613 H   0  0  0  0  0  0  0  0  0  0  0  0
   -1.4134    0.5925   -1.1561 H   0  0  0  0  0  0  0  0  0  0  0  0
    0.0324    1.3457   -1.8376 H   0  0  0  0  0  0  0  0  0  0  0  0
    1.4134   -0.5925   -1.1561 H   0  0  0  0  0  0  0  0  0  0  0  0
   -0.0324   -1.3457   -1.8376 H   0  0  0  0  0  0  0  0  0  0  0  0
  2  1  1  0
  3  1  1  0
  4  2  1  0
  5  4  1  0
  5  3  1  0
  6  1  1  0
  7  1  1  0
  8  2  1  0
  9  2  1  0
 10  3  1  0
 11  3  1  0
 12  4  1  0
 13  4  1  0
 14  5  1  0
 15  5  1  0
M  END
