2-Methyl-2-butene
     RDKit          3D

 15 14  0  0  0  0  0  0  0  0999 V2000
   -1.5067    0.5019    0.0000 C   0  0  0  0  0  0  0  0  0  0  0  0
    0.0025    0.4520    0.0000 C   0  0  0  0  0  0  0  0  0  0  0  0
    0.7351   -0.6752    0.0000 C   0  0  0  0  0  0  0  0  0  0  0  0
    0.2595   -2.1023    0.0000 C   0  0  0  0  0  0  0  0  0  0  0  0
    0.6697    1.8086    0.0000 C   0  0  0  0  0  0  0  0  0  0  0  0
   -1.9733   -0.4849    0.0000 H   0  0  0  0  0  0  0  0  0  0  0  0
   -1.8741    1.0474    0.8797 H   0  0  0  0  0  0  0  0  0  0  0  0
   -1.8741    1.0474   -0.8797 H   0  0  0  0  0  0  0  0  0  0  0  0
    1.8200   -0.5592    0.0000 H   0  0  0  0  0  0  0  0  0  0  0  0
   -0.8293   -2.1933    0.0000 H   0  0  0  0  0  0  0  0  0  0  0  0
    0.6381   -2.6392   -0.8797 H   0  0  0  0  0  0  0  0  0  0  0  0
    0.6381   -2.6392    0.8797 H   0  0  0  0  0  0  0  0  0  0  0  0
    1.7606    1.7265    0.0000 H   0  0  0  0  0  0  0  0  0  0  0  0
    0.3721    2.3948   -0.8801 H   0  0  0  0  0  0  0  0  0  0  0  0
    0.3721    2.3948    0.8801 H   0  0  0  0  0  0  0  0  0  0  0  0
  2  1  1  0
  3  2  2  0
  4  3  1  0
  5  2  1  0
  6  1  1  0
  7  1  1  0
  8  1  1  0
  9  3  1  0
 10  4  1  0
 11  4  1  0
 12  4  1  0
 13  5  1  0
 14  5  1  0
 15  5  1  0
M  END
