Cyclopentene
     RDKit          3D

 13 13  0  0  0  0  0  0  0  0999 V2000
   -0.2615   -1.2080    0.0000 C   0  0  0  0  0  0  0  0  0  0  0  0
    0.2807   -2.1583    0.0000 H   0  0  0  0  0  0  0  0  0  0  0  0
   -1.3315   -1.4439    0.0000 H   0  0  0  0  0  0  0  0  0  0  0  0
    0.0686   -0.3280    1.2369 C   0  0  0  0  0  0  0  0  0  0  0  0
    0.0686   -0.3280   -1.2369 C   0  0  0  0  0  0  0  0  0  0  0  0
    0.0645    1.0751    0.6691 C   0  0  0  0  0  0  0  0  0  0  0  0
    0.0645    1.0751   -0.6691 C   0  0  0  0  0  0  0  0  0  0  0  0
   -0.6541   -0.4622    2.0509 H   0  0  0  0  0  0  0  0  0  0  0  0
    1.0565   -0.5683    1.6579 H   0  0  0  0  0  0  0  0  0  0  0  0
   -0.6541   -0.4622   -2.0509 H   0  0  0  0  0  0  0  0  0  0  0  0
    1.0565   -0.5683   -1.6579 H   0  0  0  0  0  0  0  0  0  0  0  0
    0.0990    1.9645    1.2921 H   0  0  0  0  0  0  0  0  0  0  0  0
    0.0990    1.9645   -1.2921 H   0  0  0  0  0  0  0  0  0  0  0  0
  2  1  1  0
  3  1  1  0
  4  1  1  0
  5  1  1  0
  6  4  1  0
  7  6  2  0
  7  5  1  0
  8  4  1  0
  9  4  1  0
 10  5  1  0
 11  5  1  0
 12  6  1  0
 13  7  1  0
M  END
