MTBE (methyl t-butyl ether)
     RDKit          3D

 18 17  0  0  0  0  0  0  0  0999 V2000
    0.6405   -1.9530    0.0000 C   0  0  0  0  0  0  0  0  0  0  0  0
   -0.4412   -1.0377    0.0000 O   0  0  0  0  0  0  0  0  0  0  0  0
   -0.1408    0.3775    0.0000 C   0  0  0  0  0  0  0  0  0  0  0  0
   -1.5255    1.0337    0.0000 C   0  0  0  0  0  0  0  0  0  0  0  0
    0.6350    0.7752    1.2671 C   0  0  0  0  0  0  0  0  0  0  0  0
    0.6350    0.7752   -1.2671 C   0  0  0  0  0  0  0  0  0  0  0  0
    0.1914   -2.9493    0.0000 H   0  0  0  0  0  0  0  0  0  0  0  0
    1.2727   -1.8584   -0.8937 H   0  0  0  0  0  0  0  0  0  0  0  0
    1.2727   -1.8584    0.8937 H   0  0  0  0  0  0  0  0  0  0  0  0
   -1.4378    2.1250    0.0000 H   0  0  0  0  0  0  0  0  0  0  0  0
   -2.0898    0.7274   -0.8861 H   0  0  0  0  0  0  0  0  0  0  0  0
   -2.0898    0.7274    0.8861 H   0  0  0  0  0  0  0  0  0  0  0  0
    0.7390    1.8641    1.3195 H   0  0  0  0  0  0  0  0  0  0  0  0
    0.1018    0.4374    2.1617 H   0  0  0  0  0  0  0  0  0  0  0  0
    1.6437    0.3503    1.2831 H   0  0  0  0  0  0  0  0  0  0  0  0
    0.7390    1.8641   -1.3195 H   0  0  0  0  0  0  0  0  0  0  0  0
    0.1018    0.4374   -2.1617 H   0  0  0  0  0  0  0  0  0  0  0  0
    1.6437    0.3503   -1.2831 H   0  0  0  0  0  0  0  0  0  0  0  0
  2  1  1  0
  3  2  1  0
  4  3  1  0
  5  3  1  0
  6  3  1  0
  7  1  1  0
  8  1  1  0
  9  1  1  0
 10  4  1  0
 11  4  1  0
 12  4  1  0
 13  5  1  0
 14  5  1  0
 15  5  1  0
 16  6  1  0
 17  6  1  0
 18  6  1  0
M  END
