Tetrahydropyran (THP)
     RDKit          3D

 16 16  0  0  0  0  0  0  0  0999 V2000
   -0.6248    1.3300    0.0000 C   0  0  0  0  0  0  0  0  0  0  0  0
   -1.7005    1.1010    0.0000 H   0  0  0  0  0  0  0  0  0  0  0  0
   -0.5361    2.4226    0.0000 H   0  0  0  0  0  0  0  0  0  0  0  0
    0.0203    0.7315    1.2608 C   0  0  0  0  0  0  0  0  0  0  0  0
    0.0203    0.7315   -1.2608 C   0  0  0  0  0  0  0  0  0  0  0  0
    0.0202   -0.7978    1.1849 C   0  0  0  0  0  0  0  0  0  0  0  0
    0.0202   -0.7978   -1.1849 C   0  0  0  0  0  0  0  0  0  0  0  0
    0.6588   -1.2698    0.0000 O   0  0  0  0  0  0  0  0  0  0  0  0
    1.0571    1.0809    1.3503 H   0  0  0  0  0  0  0  0  0  0  0  0
   -0.5118    1.0541    2.1647 H   0  0  0  0  0  0  0  0  0  0  0  0
    1.0571    1.0809   -1.3503 H   0  0  0  0  0  0  0  0  0  0  0  0
   -0.5118    1.0541   -2.1647 H   0  0  0  0  0  0  0  0  0  0  0  0
    0.5706   -1.2422    2.0189 H   0  0  0  0  0  0  0  0  0  0  0  0
   -1.0166   -1.1777    1.2182 H   0  0  0  0  0  0  0  0  0  0  0  0
    0.5706   -1.2422   -2.0189 H   0  0  0  0  0  0  0  0  0  0  0  0
   -1.0166   -1.1777   -1.2182 H   0  0  0  0  0  0  0  0  0  0  0  0
  2  1  1  0
  3  1  1  0
  4  1  1  0
  5  1  1  0
  6  4  1  0
  7  5  1  0
  8  7  1  0
  8  6  1  0
  9  4  1  0
 10  4  1  0
 11  5  1  0
 12  5  1  0
 13  6  1  0
 14  6  1  0
 15  7  1  0
 16  7  1  0
M  END
