N-Methylpyrrolidine
     RDKit          3D

 17 17  0  0  0  0  0  0  0  0999 V2000
    0.3375    2.1034    0.0000 C   0  0  0  0  0  0  0  0  0  0  0  0
    0.4452    0.6565    0.0000 N   0  0  0  0  0  0  0  0  0  0  0  0
   -0.1623    0.0022    1.1586 C   0  0  0  0  0  0  0  0  0  0  0  0
   -0.1623    0.0022   -1.1586 C   0  0  0  0  0  0  0  0  0  0  0  0
   -0.1635   -1.4910    0.7791 C   0  0  0  0  0  0  0  0  0  0  0  0
   -0.1635   -1.4910   -0.7791 C   0  0  0  0  0  0  0  0  0  0  0  0
   -0.7150    2.4536    0.0000 H   0  0  0  0  0  0  0  0  0  0  0  0
    0.8331    2.5143   -0.8857 H   0  0  0  0  0  0  0  0  0  0  0  0
    0.8331    2.5143    0.8857 H   0  0  0  0  0  0  0  0  0  0  0  0
    0.4065    0.2217    2.0687 H   0  0  0  0  0  0  0  0  0  0  0  0
   -1.2015    0.3591    1.3185 H   0  0  0  0  0  0  0  0  0  0  0  0
    0.4065    0.2217   -2.0687 H   0  0  0  0  0  0  0  0  0  0  0  0
   -1.2015    0.3591   -1.3185 H   0  0  0  0  0  0  0  0  0  0  0  0
    0.7334   -1.9854    1.1636 H   0  0  0  0  0  0  0  0  0  0  0  0
   -1.0301   -2.0106    1.1985 H   0  0  0  0  0  0  0  0  0  0  0  0
    0.7334   -1.9854   -1.1636 H   0  0  0  0  0  0  0  0  0  0  0  0
   -1.0301   -2.0106   -1.1985 H   0  0  0  0  0  0  0  0  0  0  0  0
  2  1  1  0
  3  2  1  0
  4  2  1  0
  5  3  1  0
  6  5  1  0
  6  4  1  0
  7  1  1  0
  8  1  1  0
  9  1  1  0
 10  3  1  0
 11  3  1  0
 12  4  1  0
 13  4  1  0
 14  5  1  0
 15  5  1  0
 16  6  1  0
 17  6  1  0
M  END
