Cyclopentanone
     RDKit          3D

 14 14  0  0  0  0  0  0  0  0999 V2000
    0.0000    0.0000    2.1380 O   0  0  0  0  0  0  0  0  0  0  0  0
    0.0000    0.0000    0.9235 C   0  0  0  0  0  0  0  0  0  0  0  0
    0.0017    1.2439    0.0302 C   0  0  0  0  0  0  0  0  0  0  0  0
   -0.0017   -1.2439    0.0302 C   0  0  0  0  0  0  0  0  0  0  0  0
    0.2973    0.7148   -1.3838 C   0  0  0  0  0  0  0  0  0  0  0  0
   -0.2973   -0.7148   -1.3838 C   0  0  0  0  0  0  0  0  0  0  0  0
   -1.0038    1.6845    0.0884 H   0  0  0  0  0  0  0  0  0  0  0  0
    0.7020    1.9938    0.4087 H   0  0  0  0  0  0  0  0  0  0  0  0
    1.0038   -1.6845    0.0884 H   0  0  0  0  0  0  0  0  0  0  0  0
   -0.7020   -1.9938    0.4087 H   0  0  0  0  0  0  0  0  0  0  0  0
   -0.1191    1.3445   -2.1752 H   0  0  0  0  0  0  0  0  0  0  0  0
    1.3817    0.6646   -1.5443 H   0  0  0  0  0  0  0  0  0  0  0  0
    0.1191   -1.3445   -2.1752 H   0  0  0  0  0  0  0  0  0  0  0  0
   -1.3817   -0.6646   -1.5443 H   0  0  0  0  0  0  0  0  0  0  0  0
  2  1  2  0
  3  2  1  0
  4  2  1  0
  5  3  1  0
  6  5  1  0
  6  4  1  0
  7  3  1  0
  8  3  1  0
  9  4  1  0
 10  4  1  0
 11  5  1  0
 12  5  1  0
 13  6  1  0
 14  6  1  0
M  END
