2-Methyl-2-cyanopropane
     RDKit          3D

 15 14  0  0  0  0  0  0  0  0999 V2000
    0.0000    0.0000    2.3609 N   0  0  0  0  0  0  0  0  0  0  0  0
    0.0000    0.0000    1.1988 C   0  0  0  0  0  0  0  0  0  0  0  0
    0.0000    0.0000   -0.2803 C   0  0  0  0  0  0  0  0  0  0  0  0
    0.0000    1.4659   -0.7727 C   0  0  0  0  0  0  0  0  0  0  0  0
    1.2695   -0.7329   -0.7727 C   0  0  0  0  0  0  0  0  0  0  0  0
   -1.2695   -0.7329   -0.7727 C   0  0  0  0  0  0  0  0  0  0  0  0
    0.0000    1.4809   -1.8677 H   0  0  0  0  0  0  0  0  0  0  0  0
   -0.8866    2.0011   -0.4205 H   0  0  0  0  0  0  0  0  0  0  0  0
    0.8866    2.0011   -0.4205 H   0  0  0  0  0  0  0  0  0  0  0  0
    1.2825   -0.7404   -1.8677 H   0  0  0  0  0  0  0  0  0  0  0  0
    2.1763   -0.2327   -0.4205 H   0  0  0  0  0  0  0  0  0  0  0  0
    1.2897   -1.7684   -0.4205 H   0  0  0  0  0  0  0  0  0  0  0  0
   -1.2825   -0.7404   -1.8677 H   0  0  0  0  0  0  0  0  0  0  0  0
   -1.2897   -1.7684   -0.4205 H   0  0  0  0  0  0  0  0  0  0  0  0
   -2.1763   -0.2327   -0.4205 H   0  0  0  0  0  0  0  0  0  0  0  0
  2  1  3  0
  3  2  1  0
  4  3  1  0
  5  3  1  0
  6  3  1  0
  7  4  1  0
  8  4  1  0
  9  4  1  0
 10  5  1  0
 11  5  1  0
 12  5  1  0
 13  6  1  0
 14  6  1  0
 15  6  1  0
M  END
