Cyclopentenone
     RDKit          3D

 12 12  0  0  0  0  0  0  0  0999 V2000
    0.0651    2.1004    0.0000 O   0  0  0  0  0  0  0  0  0  0  0  0
    0.0015    0.8825    0.0000 C   0  0  0  0  0  0  0  0  0  0  0  0
   -1.2270    0.0542    0.0000 C   0  0  0  0  0  0  0  0  0  0  0  0
   -0.9044   -1.2503    0.0000 C   0  0  0  0  0  0  0  0  0  0  0  0
    0.5871   -1.4953    0.0000 C   0  0  0  0  0  0  0  0  0  0  0  0
    1.2000   -0.0791    0.0000 C   0  0  0  0  0  0  0  0  0  0  0  0
   -2.2217    0.4843    0.0000 H   0  0  0  0  0  0  0  0  0  0  0  0
   -1.6200   -2.0680    0.0000 H   0  0  0  0  0  0  0  0  0  0  0  0
    0.8834   -2.0847    0.8771 H   0  0  0  0  0  0  0  0  0  0  0  0
    0.8834   -2.0847   -0.8771 H   0  0  0  0  0  0  0  0  0  0  0  0
    1.8198    0.1215    0.8797 H   0  0  0  0  0  0  0  0  0  0  0  0
    1.8198    0.1215   -0.8797 H   0  0  0  0  0  0  0  0  0  0  0  0
  2  1  2  0
  3  2  1  0
  4  3  2  0
  5  4  1  0
  6  5  1  0
  6  2  1  0
  7  3  1  0
  8  4  1  0
  9  5  1  0
 10  5  1  0
 11  6  1  0
 12  6  1  0
M  END
