N-Methylpyrrole
     RDKit          3D

 13 13  0  0  0  0  0  0  0  0999 V2000
    1.1203    2.4076    0.0000 H   0  0  0  0  0  0  0  0  0  0  0  0
    0.0750    2.0758    0.0000 C   0  0  0  0  0  0  0  0  0  0  0  0
   -0.0265    0.6275    0.0000 N   0  0  0  0  0  0  0  0  0  0  0  0
   -0.0190   -0.1739    1.1204 C   0  0  0  0  0  0  0  0  0  0  0  0
   -0.0190   -0.1739   -1.1204 C   0  0  0  0  0  0  0  0  0  0  0  0
   -0.0185   -1.4941    0.7125 C   0  0  0  0  0  0  0  0  0  0  0  0
   -0.0185   -1.4941   -0.7125 C   0  0  0  0  0  0  0  0  0  0  0  0
   -0.4221    2.4790   -0.8858 H   0  0  0  0  0  0  0  0  0  0  0  0
   -0.4221    2.4790    0.8858 H   0  0  0  0  0  0  0  0  0  0  0  0
   -0.0185    0.2623    2.1092 H   0  0  0  0  0  0  0  0  0  0  0  0
   -0.0185    0.2623   -2.1092 H   0  0  0  0  0  0  0  0  0  0  0  0
   -0.0311   -2.3576    1.3628 H   0  0  0  0  0  0  0  0  0  0  0  0
   -0.0311   -2.3576   -1.3628 H   0  0  0  0  0  0  0  0  0  0  0  0
  2  1  1  0
  3  2  1  0
  4  3  1  0
  5  3  1  0
  6  4  2  0
  7  6  1  0
  7  5  2  0
  8  2  1  0
  9  2  1  0
 10  4  1  0
 11  5  1  0
 12  6  1  0
 13  7  1  0
M  END
