Furfural
     RDKit          3D

 11 11  0  0  0  0  0  0  0  0999 V2000
    1.2502   -0.2683    0.0000 O   0  0  0  0  0  0  0  0  0  0  0  0
   -0.0078    0.2914    0.0000 C   0  0  0  0  0  0  0  0  0  0  0  0
   -0.9547   -0.7051    0.0000 C   0  0  0  0  0  0  0  0  0  0  0  0
   -0.2446   -1.9385    0.0000 C   0  0  0  0  0  0  0  0  0  0  0  0
    1.0863   -1.6113    0.0000 C   0  0  0  0  0  0  0  0  0  0  0  0
   -0.0798    1.7449    0.0000 C   0  0  0  0  0  0  0  0  0  0  0  0
   -1.1285    2.3722    0.0000 O   0  0  0  0  0  0  0  0  0  0  0  0
   -2.0238   -0.5499    0.0000 H   0  0  0  0  0  0  0  0  0  0  0  0
   -0.6575   -2.9370    0.0000 H   0  0  0  0  0  0  0  0  0  0  0  0
    1.9915   -2.1992    0.0000 H   0  0  0  0  0  0  0  0  0  0  0  0
    0.9030    2.2570    0.0000 H   0  0  0  0  0  0  0  0  0  0  0  0
  2  1  1  0
  3  2  2  0
  4  3  1  0
  5  4  2  0
  5  1  1  0
  6  2  1  0
  7  6  2  0
  8  3  1  0
  9  4  1  0
 10  5  1  0
 11  6  1  0
M  END
