3,3-Dimethyl-1-butene
     RDKit          3D

 18 17  0  0  0  0  0  0  0  0999 V2000
   -0.1256   -2.2106    0.0000 C   0  0  0  0  0  0  0  0  0  0  0  0
    0.5687   -1.0684    0.0000 C   0  0  0  0  0  0  0  0  0  0  0  0
    0.0311    0.3517    0.0000 C   0  0  0  0  0  0  0  0  0  0  0  0
   -1.5061    0.4017    0.0000 C   0  0  0  0  0  0  0  0  0  0  0  0
    0.5687    1.0724    1.2595 C   0  0  0  0  0  0  0  0  0  0  0  0
    0.5687    1.0724   -1.2595 C   0  0  0  0  0  0  0  0  0  0  0  0
   -1.2113   -2.2362    0.0000 H   0  0  0  0  0  0  0  0  0  0  0  0
    0.3803   -3.1719    0.0000 H   0  0  0  0  0  0  0  0  0  0  0  0
    1.6592   -1.1299    0.0000 H   0  0  0  0  0  0  0  0  0  0  0  0
   -1.8490    1.4422    0.0000 H   0  0  0  0  0  0  0  0  0  0  0  0
   -1.9235   -0.0873   -0.8869 H   0  0  0  0  0  0  0  0  0  0  0  0
   -1.9235   -0.0873    0.8869 H   0  0  0  0  0  0  0  0  0  0  0  0
    0.2512    2.1219    1.2676 H   0  0  0  0  0  0  0  0  0  0  0  0
    0.1982    0.5958    2.1734 H   0  0  0  0  0  0  0  0  0  0  0  0
    1.6642    1.0536    1.2903 H   0  0  0  0  0  0  0  0  0  0  0  0
    0.2512    2.1219   -1.2676 H   0  0  0  0  0  0  0  0  0  0  0  0
    0.1982    0.5958   -2.1734 H   0  0  0  0  0  0  0  0  0  0  0  0
    1.6642    1.0536   -1.2903 H   0  0  0  0  0  0  0  0  0  0  0  0
  2  1  2  0
  3  2  1  0
  4  3  1  0
  5  3  1  0
  6  3  1  0
  7  1  1  0
  8  1  1  0
  9  2  1  0
 10  4  1  0
 11  4  1  0
 12  4  1  0
 13  5  1  0
 14  5  1  0
 15  5  1  0
 16  6  1  0
 17  6  1  0
 18  6  1  0
M  END
