Cyclohexane, chair
     RDKit          3D

 18 18  0  0  0  0  0  0  0  0999 V2000
   -1.2717    0.7342    0.2285 C   0  0  0  0  0  0  0  0  0  0  0  0
    0.0000    1.4684   -0.2285 C   0  0  0  0  0  0  0  0  0  0  0  0
    0.0000   -1.4684    0.2285 C   0  0  0  0  0  0  0  0  0  0  0  0
    1.2717   -0.7342   -0.2285 C   0  0  0  0  0  0  0  0  0  0  0  0
    1.2717    0.7342    0.2285 C   0  0  0  0  0  0  0  0  0  0  0  0
   -1.2717   -0.7342   -0.2285 C   0  0  0  0  0  0  0  0  0  0  0  0
   -1.3325    0.7693    1.3264 H   0  0  0  0  0  0  0  0  0  0  0  0
    0.0000    1.5387   -1.3264 H   0  0  0  0  0  0  0  0  0  0  0  0
    0.0000   -1.5387    1.3264 H   0  0  0  0  0  0  0  0  0  0  0  0
    1.3325   -0.7693   -1.3264 H   0  0  0  0  0  0  0  0  0  0  0  0
    1.3325    0.7693    1.3264 H   0  0  0  0  0  0  0  0  0  0  0  0
   -1.3325   -0.7693   -1.3264 H   0  0  0  0  0  0  0  0  0  0  0  0
   -2.1640    1.2494   -0.1489 H   0  0  0  0  0  0  0  0  0  0  0  0
    0.0000    2.4988    0.1489 H   0  0  0  0  0  0  0  0  0  0  0  0
    0.0000   -2.4988   -0.1489 H   0  0  0  0  0  0  0  0  0  0  0  0
    2.1640   -1.2494    0.1489 H   0  0  0  0  0  0  0  0  0  0  0  0
    2.1640    1.2494   -0.1489 H   0  0  0  0  0  0  0  0  0  0  0  0
   -2.1640   -1.2494    0.1489 H   0  0  0  0  0  0  0  0  0  0  0  0
  2  1  1  0
  4  3  1  0
  5  4  1  0
  5  2  1  0
  6  3  1  0
  6  1  1  0
  7  1  1  0
  8  2  1  0
  9  3  1  0
 10  4  1  0
 11  5  1  0
 12  6  1  0
 13  1  1  0
 14  2  1  0
 15  3  1  0
 16  4  1  0
 17  5  1  0
 18  6  1  0
M  END
