t-Butylacetylene
     RDKit          3D

 16 15  0  0  0  0  0  0  0  0999 V2000
    0.2987    0.0000    0.0000 C   0  0  0  0  0  0  0  0  0  0  0  0
   -1.1755    0.0003    0.0000 C   0  0  0  0  0  0  0  0  0  0  0  0
   -2.3868    0.0003    0.0000 C   0  0  0  0  0  0  0  0  0  0  0  0
    0.8088    1.4611    0.0000 C   0  0  0  0  0  0  0  0  0  0  0  0
    0.8087   -0.7307    1.2652 C   0  0  0  0  0  0  0  0  0  0  0  0
    0.8087   -0.7307   -1.2652 C   0  0  0  0  0  0  0  0  0  0  0  0
   -3.4528    0.0004    0.0000 H   0  0  0  0  0  0  0  0  0  0  0  0
    1.9047    1.4733    0.0000 H   0  0  0  0  0  0  0  0  0  0  0  0
    0.4576    1.9986   -0.8862 H   0  0  0  0  0  0  0  0  0  0  0  0
    0.4576    1.9986    0.8862 H   0  0  0  0  0  0  0  0  0  0  0  0
    1.9045   -0.7384    1.2750 H   0  0  0  0  0  0  0  0  0  0  0  0
    0.4588   -0.2311    2.1738 H   0  0  0  0  0  0  0  0  0  0  0  0
    0.4563   -1.7665    1.2880 H   0  0  0  0  0  0  0  0  0  0  0  0
    1.9045   -0.7384   -1.2750 H   0  0  0  0  0  0  0  0  0  0  0  0
    0.4563   -1.7665   -1.2880 H   0  0  0  0  0  0  0  0  0  0  0  0
    0.4588   -0.2311   -2.1738 H   0  0  0  0  0  0  0  0  0  0  0  0
  2  1  1  0
  3  2  3  0
  4  1  1  0
  5  1  1  0
  6  1  1  0
  7  3  1  0
  8  4  1  0
  9  4  1  0
 10  4  1  0
 11  5  1  0
 12  5  1  0
 13  5  1  0
 14  6  1  0
 15  6  1  0
 16  6  1  0
M  END
