Cyclohexene
     RDKit          3D

 16 16  0  0  0  0  0  0  0  0999 V2000
    0.0049    0.6699    1.3069 C   0  0  0  0  0  0  0  0  0  0  0  0
   -0.0049   -0.6699    1.3069 C   0  0  0  0  0  0  0  0  0  0  0  0
   -0.0058    1.5039    0.0476 C   0  0  0  0  0  0  0  0  0  0  0  0
    0.0058   -1.5039    0.0476 C   0  0  0  0  0  0  0  0  0  0  0  0
   -0.3711    0.6722   -1.1934 C   0  0  0  0  0  0  0  0  0  0  0  0
    0.3711   -0.6722   -1.1934 C   0  0  0  0  0  0  0  0  0  0  0  0
    0.0196    1.2045    2.2559 H   0  0  0  0  0  0  0  0  0  0  0  0
   -0.0196   -1.2045    2.2559 H   0  0  0  0  0  0  0  0  0  0  0  0
   -0.7096    2.3389    0.1646 H   0  0  0  0  0  0  0  0  0  0  0  0
    0.7096   -2.3389    0.1646 H   0  0  0  0  0  0  0  0  0  0  0  0
    0.9825    1.9706   -0.0885 H   0  0  0  0  0  0  0  0  0  0  0  0
   -0.9825   -1.9706   -0.0885 H   0  0  0  0  0  0  0  0  0  0  0  0
   -1.4537    0.4840   -1.1953 H   0  0  0  0  0  0  0  0  0  0  0  0
    1.4537   -0.4840   -1.1953 H   0  0  0  0  0  0  0  0  0  0  0  0
   -0.1481    1.2372   -2.1064 H   0  0  0  0  0  0  0  0  0  0  0  0
    0.1481   -1.2372   -2.1064 H   0  0  0  0  0  0  0  0  0  0  0  0
  2  1  2  0
  3  1  1  0
  4  2  1  0
  5  3  1  0
  6  5  1  0
  6  4  1  0
  7  1  1  0
  8  2  1  0
  9  3  1  0
 10  4  1  0
 11  3  1  0
 12  4  1  0
 13  5  1  0
 14  6  1  0
 15  5  1  0
 16  6  1  0
M  END
