Benzene
     RDKit          3D

 12 12  0  0  0  0  0  0  0  0999 V2000
    0.0000    1.3985    0.0000 C   0  0  0  0  0  0  0  0  0  0  0  0
    1.2111    0.6993    0.0000 C   0  0  0  0  0  0  0  0  0  0  0  0
   -1.2111    0.6993    0.0000 C   0  0  0  0  0  0  0  0  0  0  0  0
    1.2111   -0.6993    0.0000 C   0  0  0  0  0  0  0  0  0  0  0  0
   -1.2111   -0.6993    0.0000 C   0  0  0  0  0  0  0  0  0  0  0  0
    0.0000   -1.3985    0.0000 C   0  0  0  0  0  0  0  0  0  0  0  0
    0.0000    2.4850    0.0000 H   0  0  0  0  0  0  0  0  0  0  0  0
    2.1520    1.2425    0.0000 H   0  0  0  0  0  0  0  0  0  0  0  0
   -2.1520    1.2425    0.0000 H   0  0  0  0  0  0  0  0  0  0  0  0
    2.1520   -1.2425    0.0000 H   0  0  0  0  0  0  0  0  0  0  0  0
   -2.1520   -1.2425    0.0000 H   0  0  0  0  0  0  0  0  0  0  0  0
    0.0000   -2.4850    0.0000 H   0  0  0  0  0  0  0  0  0  0  0  0
  2  1  2  0
  3  1  1  0
  4  2  1  0
  5  3  2  0
  6  5  1  0
  6  4  2  0
  7  1  1  0
  8  2  1  0
  9  3  1  0
 10  4  1  0
 11  5  1  0
 12  6  1  0
M  END
