N-Methylpiperidine
     RDKit          3D

 20 20  0  0  0  0  0  0  0  0999 V2000
    0.3088    2.8122    0.0000 H   0  0  0  0  0  0  0  0  0  0  0  0
   -0.6755    2.3017    0.0000 C   0  0  0  0  0  0  0  0  0  0  0  0
   -0.5624    0.8508    0.0000 N   0  0  0  0  0  0  0  0  0  0  0  0
    0.0951    0.3573    1.2114 C   0  0  0  0  0  0  0  0  0  0  0  0
    0.0951    0.3573   -1.2114 C   0  0  0  0  0  0  0  0  0  0  0  0
    0.0988   -1.1740    1.2597 C   0  0  0  0  0  0  0  0  0  0  0  0
    0.0988   -1.1740   -1.2597 C   0  0  0  0  0  0  0  0  0  0  0  0
    0.7507   -1.7613    0.0000 C   0  0  0  0  0  0  0  0  0  0  0  0
   -1.2277    2.6310   -0.8863 H   0  0  0  0  0  0  0  0  0  0  0  0
   -1.2277    2.6310    0.8863 H   0  0  0  0  0  0  0  0  0  0  0  0
    1.1410    0.7299    1.2734 H   0  0  0  0  0  0  0  0  0  0  0  0
   -0.4390    0.7616    2.0790 H   0  0  0  0  0  0  0  0  0  0  0  0
    1.1410    0.7299   -1.2734 H   0  0  0  0  0  0  0  0  0  0  0  0
   -0.4390    0.7616   -2.0790 H   0  0  0  0  0  0  0  0  0  0  0  0
    0.6267   -1.5078    2.1614 H   0  0  0  0  0  0  0  0  0  0  0  0
   -0.9375   -1.5267    1.3385 H   0  0  0  0  0  0  0  0  0  0  0  0
    0.6267   -1.5078   -2.1614 H   0  0  0  0  0  0  0  0  0  0  0  0
   -0.9375   -1.5267   -1.3385 H   0  0  0  0  0  0  0  0  0  0  0  0
    1.8233   -1.5188    0.0000 H   0  0  0  0  0  0  0  0  0  0  0  0
    0.6750   -2.8553    0.0000 H   0  0  0  0  0  0  0  0  0  0  0  0
  2  1  1  0
  3  2  1  0
  4  3  1  0
  5  3  1  0
  6  4  1  0
  7  5  1  0
  8  7  1  0
  8  6  1  0
  9  2  1  0
 10  2  1  0
 11  4  1  0
 12  4  1  0
 13  5  1  0
 14  5  1  0
 15  6  1  0
 16  6  1  0
 17  7  1  0
 18  7  1  0
 19  8  1  0
 20  8  1  0
M  END
