Cyclohexanone
     RDKit          3D

 17 17  0  0  0  0  0  0  0  0999 V2000
   -1.2483    1.9699    0.0000 O   0  0  0  0  0  0  0  0  0  0  0  0
   -0.4071    1.0862    0.0000 C   0  0  0  0  0  0  0  0  0  0  0  0
    0.1546    0.5005    1.2878 C   0  0  0  0  0  0  0  0  0  0  0  0
    0.1546    0.5005   -1.2878 C   0  0  0  0  0  0  0  0  0  0  0  0
    0.1588   -1.0436    1.2674 C   0  0  0  0  0  0  0  0  0  0  0  0
    0.1588   -1.0436   -1.2674 C   0  0  0  0  0  0  0  0  0  0  0  0
    0.8297   -1.5929    0.0000 C   0  0  0  0  0  0  0  0  0  0  0  0
    1.1906    0.8594    1.3852 H   0  0  0  0  0  0  0  0  0  0  0  0
   -0.4156    0.9005    2.1306 H   0  0  0  0  0  0  0  0  0  0  0  0
    1.1906    0.8594   -1.3852 H   0  0  0  0  0  0  0  0  0  0  0  0
   -0.4156    0.9005   -2.1306 H   0  0  0  0  0  0  0  0  0  0  0  0
    0.6622   -1.4198    2.1655 H   0  0  0  0  0  0  0  0  0  0  0  0
   -0.8773   -1.4053    1.3157 H   0  0  0  0  0  0  0  0  0  0  0  0
    0.6622   -1.4198   -2.1655 H   0  0  0  0  0  0  0  0  0  0  0  0
   -0.8773   -1.4053   -1.3157 H   0  0  0  0  0  0  0  0  0  0  0  0
    1.8943   -1.3171    0.0000 H   0  0  0  0  0  0  0  0  0  0  0  0
    0.7910   -2.6887    0.0000 H   0  0  0  0  0  0  0  0  0  0  0  0
  2  1  2  0
  3  2  1  0
  4  2  1  0
  5  3  1  0
  6  4  1  0
  7  6  1  0
  7  5  1  0
  8  3  1  0
  9  3  1  0
 10  4  1  0
 11  4  1  0
 12  5  1  0
 13  5  1  0
 14  6  1  0
 15  6  1  0
 16  7  1  0
 17  7  1  0
M  END
