Cyclohexenone
     RDKit          3D

 15 15  0  0  0  0  0  0  0  0999 V2000
   -2.3626    0.0012   -0.0705 O   0  0  0  0  0  0  0  0  0  0  0  0
   -1.1406    0.0223    0.0214 C   0  0  0  0  0  0  0  0  0  0  0  0
   -0.3818    1.2909   -0.0515 C   0  0  0  0  0  0  0  0  0  0  0  0
    0.9621    1.3260    0.0236 C   0  0  0  0  0  0  0  0  0  0  0  0
    1.8203    0.0939    0.1306 C   0  0  0  0  0  0  0  0  0  0  0  0
    1.0776   -1.1647   -0.3416 C   0  0  0  0  0  0  0  0  0  0  0  0
   -0.3293   -1.2440    0.2682 C   0  0  0  0  0  0  0  0  0  0  0  0
   -0.9740    2.1970   -0.1463 H   0  0  0  0  0  0  0  0  0  0  0  0
    1.4699    2.2897    0.0125 H   0  0  0  0  0  0  0  0  0  0  0  0
    2.7435    0.2375   -0.4441 H   0  0  0  0  0  0  0  0  0  0  0  0
    2.1404   -0.0219    1.1788 H   0  0  0  0  0  0  0  0  0  0  0  0
    0.9933   -1.1363   -1.4357 H   0  0  0  0  0  0  0  0  0  0  0  0
    1.6522   -2.0634   -0.0916 H   0  0  0  0  0  0  0  0  0  0  0  0
   -0.8998   -2.0964   -0.1116 H   0  0  0  0  0  0  0  0  0  0  0  0
   -0.2581   -1.3678    1.3598 H   0  0  0  0  0  0  0  0  0  0  0  0
  2  1  2  0
  3  2  1  0
  4  3  2  0
  5  4  1  0
  6  5  1  0
  7  6  1  0
  7  2  1  0
  8  3  1  0
  9  4  1  0
 10  5  1  0
 11  5  1  0
 12  6  1  0
 13  6  1  0
 14  7  1  0
 15  7  1  0
M  END
