Fluorobenzene
     RDKit          3D

 12 12  0  0  0  0  0  0  0  0999 V2000
    0.0000    0.0000    2.2888 F   0  0  0  0  0  0  0  0  0  0  0  0
    0.0000    0.0000    0.9276 C   0  0  0  0  0  0  0  0  0  0  0  0
    0.0000    1.2199    0.2616 C   0  0  0  0  0  0  0  0  0  0  0  0
    0.0000   -1.2199    0.2616 C   0  0  0  0  0  0  0  0  0  0  0  0
    0.0000    1.2102   -1.1365 C   0  0  0  0  0  0  0  0  0  0  0  0
    0.0000   -1.2102   -1.1365 C   0  0  0  0  0  0  0  0  0  0  0  0
    0.0000    0.0000   -1.8372 C   0  0  0  0  0  0  0  0  0  0  0  0
    0.0000    2.1444    0.8289 H   0  0  0  0  0  0  0  0  0  0  0  0
    0.0000   -2.1444    0.8289 H   0  0  0  0  0  0  0  0  0  0  0  0
    0.0000    2.1526   -1.6759 H   0  0  0  0  0  0  0  0  0  0  0  0
    0.0000   -2.1526   -1.6759 H   0  0  0  0  0  0  0  0  0  0  0  0
    0.0000    0.0000   -2.9227 H   0  0  0  0  0  0  0  0  0  0  0  0
  2  1  1  0
  3  2  2  0
  4  2  1  0
  5  3  1  0
  6  4  2  0
  7  6  1  0
  7  5  2  0
  8  3  1  0
  9  4  1  0
 10  5  1  0
 11  6  1  0
 12  7  1  0
M  END
