Chlorobenzene
     RDKit          3D

 12 12  0  0  0  0  0  0  0  0999 V2000
    0.0000    0.0000    2.2663 Cl  0  0  0  0  0  0  0  0  0  0  0  0
    0.0000    0.0000    0.5050 C   0  0  0  0  0  0  0  0  0  0  0  0
    0.0000    1.2171   -0.1776 C   0  0  0  0  0  0  0  0  0  0  0  0
    0.0000   -1.2171   -0.1776 C   0  0  0  0  0  0  0  0  0  0  0  0
    0.0000    1.2088   -1.5753 C   0  0  0  0  0  0  0  0  0  0  0  0
    0.0000   -1.2088   -1.5753 C   0  0  0  0  0  0  0  0  0  0  0  0
    0.0000    0.0000   -2.2768 C   0  0  0  0  0  0  0  0  0  0  0  0
    0.0000    2.1503    0.3750 H   0  0  0  0  0  0  0  0  0  0  0  0
    0.0000   -2.1503    0.3750 H   0  0  0  0  0  0  0  0  0  0  0  0
    0.0000    2.1523   -2.1132 H   0  0  0  0  0  0  0  0  0  0  0  0
    0.0000   -2.1523   -2.1132 H   0  0  0  0  0  0  0  0  0  0  0  0
    0.0000    0.0000   -3.3625 H   0  0  0  0  0  0  0  0  0  0  0  0
  2  1  1  0
  3  2  2  0
  4  2  1  0
  5  3  1  0
  6  4  2  0
  7  6  1  0
  7  5  2  0
  8  3  1  0
  9  4  1  0
 10  5  1  0
 11  6  1  0
 12  7  1  0
M  END
