Nitrobenzene
     RDKit          3D

 14 14  0  0  0  0  0  0  0  0999 V2000
    0.0000    0.0000    1.7204 N   0  0  0  0  0  0  0  0  0  0  0  0
    0.0000    0.0000    0.2454 C   0  0  0  0  0  0  0  0  0  0  0  0
    0.0000    1.2222   -0.4275 C   0  0  0  0  0  0  0  0  0  0  0  0
    0.0000   -1.2222   -0.4275 C   0  0  0  0  0  0  0  0  0  0  0  0
    0.0000    1.2133   -1.8223 C   0  0  0  0  0  0  0  0  0  0  0  0
    0.0000   -1.2133   -1.8223 C   0  0  0  0  0  0  0  0  0  0  0  0
    0.0000    0.0000   -2.5187 C   0  0  0  0  0  0  0  0  0  0  0  0
    0.0000    2.1458    0.1380 H   0  0  0  0  0  0  0  0  0  0  0  0
    0.0000   -2.1458    0.1380 H   0  0  0  0  0  0  0  0  0  0  0  0
    0.0000    2.1537   -2.3642 H   0  0  0  0  0  0  0  0  0  0  0  0
    0.0000   -2.1537   -2.3642 H   0  0  0  0  0  0  0  0  0  0  0  0
    0.0000    0.0000   -3.6045 H   0  0  0  0  0  0  0  0  0  0  0  0
    0.0000    1.0902    2.2944 O   0  0  0  0  0  0  0  0  0  0  0  0
    0.0000   -1.0902    2.2944 O   0  0  0  0  0  0  0  0  0  0  0  0
  2  1  1  0
  3  2  2  0
  4  2  1  0
  5  3  1  0
  6  4  2  0
  7  6  1  0
  7  5  2  0
  8  3  1  0
  9  4  1  0
 10  5  1  0
 11  6  1  0
 12  7  1  0
 13  1  2  0
 14  1  1  0
M  CHG  2   1   1  14  -1
M  END
