1,4-Benzoquinone
     RDKit          3D

 12 12  0  0  0  0  0  0  0  0999 V2000
    0.0000    0.0000    1.4434 C   0  0  0  0  0  0  0  0  0  0  0  0
    0.0000    0.0000   -1.4434 C   0  0  0  0  0  0  0  0  0  0  0  0
    0.0000    1.2710    0.6723 C   0  0  0  0  0  0  0  0  0  0  0  0
    0.0000   -1.2710    0.6723 C   0  0  0  0  0  0  0  0  0  0  0  0
    0.0000    1.2710   -0.6723 C   0  0  0  0  0  0  0  0  0  0  0  0
    0.0000   -1.2710   -0.6723 C   0  0  0  0  0  0  0  0  0  0  0  0
    0.0000    0.0000    2.6705 O   0  0  0  0  0  0  0  0  0  0  0  0
    0.0000    0.0000   -2.6705 O   0  0  0  0  0  0  0  0  0  0  0  0
    0.0000    2.1848    1.2594 H   0  0  0  0  0  0  0  0  0  0  0  0
    0.0000   -2.1848    1.2594 H   0  0  0  0  0  0  0  0  0  0  0  0
    0.0000    2.1848   -1.2594 H   0  0  0  0  0  0  0  0  0  0  0  0
    0.0000   -2.1848   -1.2594 H   0  0  0  0  0  0  0  0  0  0  0  0
  3  1  1  0
  4  1  1  0
  5  3  2  0
  5  2  1  0
  6  4  2  0
  6  2  1  0
  7  1  2  0
  8  2  2  0
  9  3  1  0
 10  4  1  0
 11  5  1  0
 12  6  1  0
M  END
