Toluene
     RDKit          3D

 15 15  0  0  0  0  0  0  0  0999 V2000
    1.0611    2.7994    0.0000 H   0  0  0  0  0  0  0  0  0  0  0  0
    0.0285    2.4275    0.0000 C   0  0  0  0  0  0  0  0  0  0  0  0
   -0.0055    0.9161    0.0000 C   0  0  0  0  0  0  0  0  0  0  0  0
   -0.0081    0.1953    1.2037 C   0  0  0  0  0  0  0  0  0  0  0  0
   -0.0081    0.1953   -1.2037 C   0  0  0  0  0  0  0  0  0  0  0  0
   -0.0074   -1.2023    1.2067 C   0  0  0  0  0  0  0  0  0  0  0  0
   -0.0074   -1.2023   -1.2067 C   0  0  0  0  0  0  0  0  0  0  0  0
   -0.0061   -1.9074    0.0000 C   0  0  0  0  0  0  0  0  0  0  0  0
   -0.0127    0.7346    2.1482 H   0  0  0  0  0  0  0  0  0  0  0  0
   -0.0127    0.7346   -2.1482 H   0  0  0  0  0  0  0  0  0  0  0  0
   -0.0116   -1.7394    2.1513 H   0  0  0  0  0  0  0  0  0  0  0  0
   -0.0116   -1.7394   -2.1513 H   0  0  0  0  0  0  0  0  0  0  0  0
   -0.0084   -2.9936    0.0000 H   0  0  0  0  0  0  0  0  0  0  0  0
   -0.4656    2.8394   -0.8856 H   0  0  0  0  0  0  0  0  0  0  0  0
   -0.4656    2.8394    0.8856 H   0  0  0  0  0  0  0  0  0  0  0  0
  2  1  1  0
  3  2  1  0
  4  3  2  0
  5  3  1  0
  6  4  1  0
  7  5  2  0
  8  7  1  0
  8  6  2  0
  9  4  1  0
 10  5  1  0
 11  6  1  0
 12  7  1  0
 13  8  1  0
 14  2  1  0
 15  2  1  0
M  END
