Norbornadiene
     RDKit          3D

 15 16  0  0  0  0  0  0  0  0999 V2000
    0.0000    0.0000    1.3565 C   0  0  0  0  0  0  0  0  0  0  0  0
    0.0000    1.1247    0.2731 C   0  0  1  0  0  0  0  0  0  0  0  0
    0.0000   -1.1247    0.2731 C   0  0  2  0  0  0  0  0  0  0  0  0
    1.2446    0.6695   -0.5210 C   0  0  0  0  0  0  0  0  0  0  0  0
    1.2446   -0.6695   -0.5210 C   0  0  0  0  0  0  0  0  0  0  0  0
   -1.2446    0.6695   -0.5210 C   0  0  0  0  0  0  0  0  0  0  0  0
   -1.2446   -0.6695   -0.5210 C   0  0  0  0  0  0  0  0  0  0  0  0
    0.8995    0.0000    1.9800 H   0  0  0  0  0  0  0  0  0  0  0  0
   -0.8995    0.0000    1.9800 H   0  0  0  0  0  0  0  0  0  0  0  0
    0.0000    2.1619    0.6126 H   0  0  0  0  0  0  0  0  0  0  0  0
    0.0000   -2.1619    0.6126 H   0  0  0  0  0  0  0  0  0  0  0  0
    1.9349    1.3395   -1.0205 H   0  0  0  0  0  0  0  0  0  0  0  0
    1.9349   -1.3395   -1.0205 H   0  0  0  0  0  0  0  0  0  0  0  0
   -1.9349    1.3395   -1.0205 H   0  0  0  0  0  0  0  0  0  0  0  0
   -1.9349   -1.3395   -1.0205 H   0  0  0  0  0  0  0  0  0  0  0  0
  2  1  1  0
  3  1  1  0
  4  2  1  0
  5  4  2  0
  5  3  1  0
  6  2  1  0
  7  6  2  0
  7  3  1  0
  8  1  1  0
  9  1  1  0
  2 10  1  1
  3 11  1  1
 12  4  1  0
 13  5  1  0
 14  6  1  0
 15  7  1  0
M  END
