Anisole (methoxybenzene)
     RDKit          3D

 16 16  0  0  0  0  0  0  0  0999 V2000
   -0.0003    0.5282    0.0000 C   0  0  0  0  0  0  0  0  0  0  0  0
   -1.3750    0.2437    0.0000 C   0  0  0  0  0  0  0  0  0  0  0  0
   -1.8109   -1.0780    0.0000 C   0  0  0  0  0  0  0  0  0  0  0  0
   -0.8888   -2.1333    0.0000 C   0  0  0  0  0  0  0  0  0  0  0  0
    0.4748   -1.8437    0.0000 C   0  0  0  0  0  0  0  0  0  0  0  0
    0.9303   -0.5189    0.0000 C   0  0  0  0  0  0  0  0  0  0  0  0
    0.3297    1.8563    0.0000 O   0  0  0  0  0  0  0  0  0  0  0  0
    1.7050    2.2149    0.0000 C   0  0  0  0  0  0  0  0  0  0  0  0
   -2.0768    1.0715    0.0000 H   0  0  0  0  0  0  0  0  0  0  0  0
   -2.8770   -1.2867    0.0000 H   0  0  0  0  0  0  0  0  0  0  0  0
   -1.2321   -3.1631    0.0000 H   0  0  0  0  0  0  0  0  0  0  0  0
    1.2026   -2.6505    0.0000 H   0  0  0  0  0  0  0  0  0  0  0  0
    1.9956   -0.3213    0.0000 H   0  0  0  0  0  0  0  0  0  0  0  0
    1.7284    3.3054    0.0000 H   0  0  0  0  0  0  0  0  0  0  0  0
    2.2170    1.8405    0.8956 H   0  0  0  0  0  0  0  0  0  0  0  0
    2.2170    1.8405   -0.8956 H   0  0  0  0  0  0  0  0  0  0  0  0
  2  1  2  0
  3  2  1  0
  4  3  2  0
  5  4  1  0
  6  5  2  0
  6  1  1  0
  7  1  1  0
  8  7  1  0
  9  2  1  0
 10  3  1  0
 11  4  1  0
 12  5  1  0
 13  6  1  0
 14  8  1  0
 15  8  1  0
 16  8  1  0
M  END
