N,N-Dimethylaniline
     RDKit          3D

 20 20  0  0  0  0  0  0  0  0999 V2000
   -0.1772    1.5724    0.0000 N   0  0  0  0  0  0  0  0  0  0  0  0
   -0.0738    0.1822    0.0000 C   0  0  0  0  0  0  0  0  0  0  0  0
   -0.0269   -0.5524    1.2089 C   0  0  0  0  0  0  0  0  0  0  0  0
   -0.0269   -0.5524   -1.2089 C   0  0  0  0  0  0  0  0  0  0  0  0
    0.0340   -1.9455    1.1996 C   0  0  0  0  0  0  0  0  0  0  0  0
    0.0340   -1.9455   -1.1996 C   0  0  0  0  0  0  0  0  0  0  0  0
    0.0621   -2.6606    0.0000 C   0  0  0  0  0  0  0  0  0  0  0  0
    0.0377    2.2976   -1.2422 C   0  0  0  0  0  0  0  0  0  0  0  0
    0.0377    2.2976    1.2422 C   0  0  0  0  0  0  0  0  0  0  0  0
   -0.0401   -0.0403    2.1630 H   0  0  0  0  0  0  0  0  0  0  0  0
   -0.0401   -0.0403   -2.1630 H   0  0  0  0  0  0  0  0  0  0  0  0
    0.0648   -2.4742    2.1487 H   0  0  0  0  0  0  0  0  0  0  0  0
    0.0648   -2.4742   -2.1487 H   0  0  0  0  0  0  0  0  0  0  0  0
    0.1118   -3.7449    0.0000 H   0  0  0  0  0  0  0  0  0  0  0  0
   -0.1082    3.3639   -1.0611 H   0  0  0  0  0  0  0  0  0  0  0  0
   -0.1082    3.3639    1.0611 H   0  0  0  0  0  0  0  0  0  0  0  0
    1.0497    2.1516   -1.6552 H   0  0  0  0  0  0  0  0  0  0  0  0
    1.0497    2.1516    1.6552 H   0  0  0  0  0  0  0  0  0  0  0  0
   -0.6879    1.9933   -2.0041 H   0  0  0  0  0  0  0  0  0  0  0  0
   -0.6879    1.9933    2.0041 H   0  0  0  0  0  0  0  0  0  0  0  0
  2  1  1  0
  3  2  2  0
  4  2  1  0
  5  3  1  0
  6  4  2  0
  7  6  1  0
  7  5  2  0
  8  1  1  0
  9  1  1  0
 10  3  1  0
 11  4  1  0
 12  5  1  0
 13  6  1  0
 14  7  1  0
 15  8  1  0
 16  9  1  0
 17  8  1  0
 18  9  1  0
 19  8  1  0
 20  9  1  0
M  END
