Indole
     RDKit          3D

 16 17  0  0  0  0  0  0  0  0999 V2000
   -1.0968    1.5580    0.0000 N   0  0  0  0  0  0  0  0  0  0  0  0
   -2.2553    0.8004    0.0000 C   0  0  0  0  0  0  0  0  0  0  0  0
   -1.9309   -0.5326    0.0000 C   0  0  0  0  0  0  0  0  0  0  0  0
   -0.4950   -0.6190    0.0000 C   0  0  0  0  0  0  0  0  0  0  0  0
   -0.0003    0.7168    0.0000 C   0  0  0  0  0  0  0  0  0  0  0  0
    1.3694    1.0087    0.0000 C   0  0  0  0  0  0  0  0  0  0  0  0
    2.2551   -0.0648    0.0000 C   0  0  0  0  0  0  0  0  0  0  0  0
    1.7884   -1.3981    0.0000 C   0  0  0  0  0  0  0  0  0  0  0  0
    0.4275   -1.6827    0.0000 C   0  0  0  0  0  0  0  0  0  0  0  0
   -1.0609    2.5646    0.0000 H   0  0  0  0  0  0  0  0  0  0  0  0
   -3.2233    1.2809    0.0000 H   0  0  0  0  0  0  0  0  0  0  0  0
   -2.6319   -1.3554    0.0000 H   0  0  0  0  0  0  0  0  0  0  0  0
    1.7300    2.0338    0.0000 H   0  0  0  0  0  0  0  0  0  0  0  0
    3.3243    0.1261    0.0000 H   0  0  0  0  0  0  0  0  0  0  0  0
    2.5081   -2.2115    0.0000 H   0  0  0  0  0  0  0  0  0  0  0  0
    0.0786   -2.7118    0.0000 H   0  0  0  0  0  0  0  0  0  0  0  0
  2  1  1  0
  3  2  2  0
  4  3  1  0
  5  4  1  0
  5  1  1  0
  6  5  2  0
  7  6  1  0
  8  7  2  0
  9  8  1  0
  9  4  2  0
 10  1  1  0
 11  2  1  0
 12  3  1  0
 13  6  1  0
 14  7  1  0
 15  8  1  0
 16  9  1  0
M  END
