methyl isothiocyanate
     RDKit          3D

  7  6  0  0  0  0  0  0  0  0999 V2000
    2.3623    0.1353    0.0007 C   0  0  0  0  0  0  0  0  0  0  0  0
    0.9972   -0.2742   -0.0036 N   0  0  0  0  0  0  0  0  0  0  0  0
   -0.1788   -0.0859   -0.0003 C   0  0  0  0  0  0  0  0  0  0  0  0
   -1.7670    0.0564    0.0008 S   0  0  0  0  0  0  0  0  0  0  0  0
    2.7358    0.1832    1.0291 H   0  0  0  0  0  0  0  0  0  0  0  0
    2.4713    1.1213   -0.4645 H   0  0  0  0  0  0  0  0  0  0  0  0
    2.9675   -0.5874   -0.5531 H   0  0  0  0  0  0  0  0  0  0  0  0
  2  1  1  0
  3  2  2  0
  4  3  2  0
  5  1  1  0
  6  1  1  0
  7  1  1  0
M  END
