crotonaldehyde (trans-2-butenal) s-trans
     RDKit          3D

 11 10  0  0  0  0  0  0  0  0999 V2000
   -2.4729   -0.2532    0.0001 O   0  0  0  0  0  0  0  0  0  0  0  0
   -1.4037    0.3349    0.0001 C   0  0  0  0  0  0  0  0  0  0  0  0
   -0.0920   -0.3245   -0.0000 C   0  0  0  0  0  0  0  0  0  0  0  0
    1.0460    0.3921   -0.0000 C   0  0  0  0  0  0  0  0  0  0  0  0
    2.4330   -0.1673   -0.0001 C   0  0  0  0  0  0  0  0  0  0  0  0
   -1.3731    1.4471    0.0002 H   0  0  0  0  0  0  0  0  0  0  0  0
   -0.0895   -1.4127   -0.0001 H   0  0  0  0  0  0  0  0  0  0  0  0
    0.9646    1.4811    0.0001 H   0  0  0  0  0  0  0  0  0  0  0  0
    2.4326   -1.2605   -0.0003 H   0  0  0  0  0  0  0  0  0  0  0  0
    2.9898    0.1819   -0.8789 H   0  0  0  0  0  0  0  0  0  0  0  0
    2.9897    0.1815    0.8790 H   0  0  0  0  0  0  0  0  0  0  0  0
  2  1  2  0
  3  2  1  0
  4  3  2  0
  5  4  1  0
  6  2  1  0
  7  3  1  0
  8  4  1  0
  9  5  1  0
 10  5  1  0
 11  5  1  0
M  END
