(E)-3,4-dimethyl-2-pentene
     RDKit          3D

 21 20  0  0  0  0  0  0  0  0999 V2000
   -2.6543   -0.6314    0.3402 C   0  0  0  0  0  0  0  0  0  0  0  0
   -1.1603   -0.6978    0.1684 C   0  0  0  0  0  0  0  0  0  0  0  0
   -0.3128    0.2830   -0.1886 C   0  0  0  0  0  0  0  0  0  0  0  0
    1.1972    0.0585   -0.2962 C   0  0  0  0  0  0  0  0  0  0  0  0
    1.6255   -1.3990   -0.5233 C   0  0  0  0  0  0  0  0  0  0  0  0
    1.9346    0.6397    0.9314 C   0  0  0  0  0  0  0  0  0  0  0  0
   -0.7490    1.6940   -0.5165 C   0  0  0  0  0  0  0  0  0  0  0  0
   -2.9391   -0.9093    1.3636 H   0  0  0  0  0  0  0  0  0  0  0  0
   -3.0733    0.3566    0.1371 H   0  0  0  0  0  0  0  0  0  0  0  0
   -3.1535   -1.3472   -0.3263 H   0  0  0  0  0  0  0  0  0  0  0  0
   -0.7403   -1.6827    0.3656 H   0  0  0  0  0  0  0  0  0  0  0  0
    1.5332    0.6323   -1.1739 H   0  0  0  0  0  0  0  0  0  0  0  0
    1.1101   -1.8412   -1.3822 H   0  0  0  0  0  0  0  0  0  0  0  0
    2.7038   -1.4478   -0.7111 H   0  0  0  0  0  0  0  0  0  0  0  0
    1.4224   -2.0247    0.3533 H   0  0  0  0  0  0  0  0  0  0  0  0
    3.0208    0.5730    0.7995 H   0  0  0  0  0  0  0  0  0  0  0  0
    1.6862    1.6920    1.1020 H   0  0  0  0  0  0  0  0  0  0  0  0
    1.6668    0.0810    1.8356 H   0  0  0  0  0  0  0  0  0  0  0  0
   -0.2009    2.4303    0.0840 H   0  0  0  0  0  0  0  0  0  0  0  0
   -0.5322    1.9263   -1.5680 H   0  0  0  0  0  0  0  0  0  0  0  0
   -1.8141    1.8649   -0.3519 H   0  0  0  0  0  0  0  0  0  0  0  0
  2  1  1  0
  3  2  2  0
  4  3  1  0
  5  4  1  0
  6  4  1  0
  7  3  1  0
  8  1  1  0
  9  1  1  0
 10  1  1  0
 11  2  1  0
 12  4  1  0
 13  5  1  0
 14  5  1  0
 15  5  1  0
 16  6  1  0
 17  6  1  0
 18  6  1  0
 19  7  1  0
 20  7  1  0
 21  7  1  0
M  END
