maleic anhydride
     RDKit          3D

  9  9  0  0  0  0  0  0  0  0999 V2000
   -2.1978    3.2864    0.0575 O   0  0  0  0  0  0  0  0  0  0  0  0
   -2.6170    4.6163    0.0525 C   0  0  0  0  0  0  0  0  0  0  0  0
   -0.8035    3.2608    0.0552 C   0  0  0  0  0  0  0  0  0  0  0  0
   -1.3973    5.4740    0.0499 C   0  0  0  0  0  0  0  0  0  0  0  0
   -0.3263    4.6734    0.0515 C   0  0  0  0  0  0  0  0  0  0  0  0
   -3.7746    4.9292    0.0543 O   0  0  0  0  0  0  0  0  0  0  0  0
   -0.1757    2.2392    0.0595 O   0  0  0  0  0  0  0  0  0  0  0  0
   -1.4552    6.5543    0.0474 H   0  0  0  0  0  0  0  0  0  0  0  0
    0.7262    4.9239    0.0506 H   0  0  0  0  0  0  0  0  0  0  0  0
  2  1  1  0
  3  1  1  0
  4  2  1  0
  5  3  1  0
  5  4  2  0
  6  2  2  0
  7  3  2  0
  8  4  1  0
  9  5  1  0
M  END
