2,5-dihydrofuran
     RDKit          3D

 11 11  0  0  0  0  0  0  0  0999 V2000
    0.0004   -1.1903    0.0000 O   0  0  0  0  0  0  0  0  0  0  0  0
    0.0000   -0.3700    1.1777 C   0  0  0  0  0  0  0  0  0  0  0  0
    0.0000   -0.3700   -1.1777 C   0  0  0  0  0  0  0  0  0  0  0  0
    0.0000    1.0459    0.6668 C   0  0  0  0  0  0  0  0  0  0  0  0
    0.0000    1.0459   -0.6668 C   0  0  0  0  0  0  0  0  0  0  0  0
   -0.8886   -0.6014    1.7844 H   0  0  0  0  0  0  0  0  0  0  0  0
    0.8883   -0.6014    1.7849 H   0  0  0  0  0  0  0  0  0  0  0  0
   -0.8886   -0.6014   -1.7844 H   0  0  0  0  0  0  0  0  0  0  0  0
    0.8883   -0.6014   -1.7849 H   0  0  0  0  0  0  0  0  0  0  0  0
   -0.0001    1.9143    1.3163 H   0  0  0  0  0  0  0  0  0  0  0  0
   -0.0001    1.9143   -1.3163 H   0  0  0  0  0  0  0  0  0  0  0  0
  2  1  1  0
  3  1  1  0
  4  2  1  0
  5  4  2  0
  5  3  1  0
  6  2  1  0
  7  2  1  0
  8  3  1  0
  9  3  1  0
 10  4  1  0
 11  5  1  0
M  END
