pyridine
     RDKit          3D

 11 11  0  0  0  0  0  0  0  0999 V2000
    0.0000   -1.4206    0.0000 N   0  0  0  0  0  0  0  0  0  0  0  0
    1.1446   -0.7230    0.0000 C   0  0  0  0  0  0  0  0  0  0  0  0
   -1.1446   -0.7230    0.0000 C   0  0  0  0  0  0  0  0  0  0  0  0
    1.2000    0.6737    0.0000 C   0  0  0  0  0  0  0  0  0  0  0  0
   -1.2000    0.6737    0.0000 C   0  0  0  0  0  0  0  0  0  0  0  0
    0.0000    1.3869    0.0000 C   0  0  0  0  0  0  0  0  0  0  0  0
    2.0613   -1.3095    0.0000 H   0  0  0  0  0  0  0  0  0  0  0  0
   -2.0613   -1.3095    0.0000 H   0  0  0  0  0  0  0  0  0  0  0  0
    2.1589    1.1826    0.0000 H   0  0  0  0  0  0  0  0  0  0  0  0
   -2.1589    1.1826    0.0000 H   0  0  0  0  0  0  0  0  0  0  0  0
    0.0000    2.4733    0.0000 H   0  0  0  0  0  0  0  0  0  0  0  0
  2  1  2  0
  3  1  1  0
  4  2  1  0
  5  3  2  0
  6  5  1  0
  6  4  2  0
  7  2  1  0
  8  3  1  0
  9  4  1  0
 10  5  1  0
 11  6  1  0
M  END
