2-methylpyrazine
     RDKit          3D

 13 13  0  0  0  0  0  0  0  0999 V2000
   -0.2265   -1.1989    0.0000 N   0  0  0  0  0  0  0  0  0  0  0  0
   -0.8621   -0.0150    0.0000 C   0  0  0  0  0  0  0  0  0  0  0  0
   -0.1287    1.1832    0.0000 C   0  0  0  0  0  0  0  0  0  0  0  0
    1.2079    1.2151    0.0000 N   0  0  0  0  0  0  0  0  0  0  0  0
    1.8273    0.0295    0.0000 C   0  0  0  0  0  0  0  0  0  0  0  0
    1.1098   -1.1696    0.0000 C   0  0  0  0  0  0  0  0  0  0  0  0
   -2.3666   -0.0313   -0.0001 C   0  0  0  0  0  0  0  0  0  0  0  0
   -2.7408   -0.5616    0.8818 H   0  0  0  0  0  0  0  0  0  0  0  0
   -2.7797    0.9808   -0.0013 H   0  0  0  0  0  0  0  0  0  0  0  0
   -2.7406   -0.5638   -0.8808 H   0  0  0  0  0  0  0  0  0  0  0  0
   -0.6404    2.1432   -0.0002 H   0  0  0  0  0  0  0  0  0  0  0  0
    2.9145    0.0346    0.0003 H   0  0  0  0  0  0  0  0  0  0  0  0
    1.6242   -2.1281    0.0002 H   0  0  0  0  0  0  0  0  0  0  0  0
  2  1  1  0
  3  2  2  0
  4  3  1  0
  5  4  2  0
  6  5  1  0
  6  1  2  0
  7  2  1  0
  8  7  1  0
  9  7  1  0
 10  7  1  0
 11  3  1  0
 12  5  1  0
 13  6  1  0
M  END
