methylenecyclobutane
     RDKit          3D

 13 13  0  0  0  0  0  0  0  0999 V2000
    0.6366    1.8345    0.0000 C   0  0  0  0  0  0  0  0  0  0  0  0
    0.1043    0.6135    0.0000 C   0  0  0  0  0  0  0  0  0  0  0  0
   -0.2372   -0.3907    1.0946 C   0  0  0  0  0  0  0  0  0  0  0  0
   -0.2372   -0.3907   -1.0946 C   0  0  0  0  0  0  0  0  0  0  0  0
   -0.2340   -1.5038    0.0000 C   0  0  0  0  0  0  0  0  0  0  0  0
    0.8646    2.3539   -0.9275 H   0  0  0  0  0  0  0  0  0  0  0  0
    0.8646    2.3539    0.9275 H   0  0  0  0  0  0  0  0  0  0  0  0
   -1.2362   -0.2252    1.5170 H   0  0  0  0  0  0  0  0  0  0  0  0
    0.4746   -0.4889    1.9208 H   0  0  0  0  0  0  0  0  0  0  0  0
   -1.2362   -0.2252   -1.5170 H   0  0  0  0  0  0  0  0  0  0  0  0
    0.4746   -0.4889   -1.9208 H   0  0  0  0  0  0  0  0  0  0  0  0
   -1.0788   -2.1977    0.0000 H   0  0  0  0  0  0  0  0  0  0  0  0
    0.6964   -2.0787    0.0000 H   0  0  0  0  0  0  0  0  0  0  0  0
  2  1  2  0
  3  2  1  0
  4  2  1  0
  5  4  1  0
  5  3  1  0
  6  1  1  0
  7  1  1  0
  8  3  1  0
  9  3  1  0
 10  4  1  0
 11  4  1  0
 12  5  1  0
 13  5  1  0
M  END
