1,3-dioxane
     RDKit          3D

 14 14  0  0  0  0  0  0  0  0999 V2000
   -0.6229   -1.2172    0.0000 C   0  0  0  0  0  0  0  0  0  0  0  0
    0.0123   -0.7661    1.1746 O   0  0  0  0  0  0  0  0  0  0  0  0
    0.0123   -0.7661   -1.1746 O   0  0  0  0  0  0  0  0  0  0  0  0
    0.0191    0.6627    1.2470 C   0  0  0  0  0  0  0  0  0  0  0  0
    0.0191    0.6627   -1.2470 C   0  0  0  0  0  0  0  0  0  0  0  0
    0.6816    1.2553    0.0000 C   0  0  0  0  0  0  0  0  0  0  0  0
   -1.6784   -0.8827    0.0000 H   0  0  0  0  0  0  0  0  0  0  0  0
   -0.5628   -2.3056    0.0000 H   0  0  0  0  0  0  0  0  0  0  0  0
   -1.0182    1.0276    1.3415 H   0  0  0  0  0  0  0  0  0  0  0  0
    0.5574    0.9206    2.1621 H   0  0  0  0  0  0  0  0  0  0  0  0
   -1.0182    1.0276   -1.3415 H   0  0  0  0  0  0  0  0  0  0  0  0
    0.5574    0.9206   -2.1621 H   0  0  0  0  0  0  0  0  0  0  0  0
    0.5873    2.3483    0.0000 H   0  0  0  0  0  0  0  0  0  0  0  0
    1.7479    1.0039    0.0000 H   0  0  0  0  0  0  0  0  0  0  0  0
  2  1  1  0
  3  1  1  0
  4  2  1  0
  5  3  1  0
  6  5  1  0
  6  4  1  0
  7  1  1  0
  8  1  1  0
  9  4  1  0
 10  4  1  0
 11  5  1  0
 12  5  1  0
 13  6  1  0
 14  6  1  0
M  END
