dimethylacetal
     RDKit          3D

 16 15  0  0  0  0  0  0  0  0999 V2000
    0.0025    0.4022    0.2446 C   0  0  0  0  0  0  0  0  0  0  0  0
    0.5261    1.8098    0.0093 C   0  0  0  0  0  0  0  0  0  0  0  0
   -1.3268    0.3682   -0.1825 O   0  0  0  0  0  0  0  0  0  0  0  0
    0.7377   -0.5714   -0.4959 O   0  0  0  0  0  0  0  0  0  0  0  0
    1.9148   -1.0405    0.1398 C   0  0  0  0  0  0  0  0  0  0  0  0
   -2.0075   -0.8529    0.0911 C   0  0  0  0  0  0  0  0  0  0  0  0
    0.0603    0.1267    1.3169 H   0  0  0  0  0  0  0  0  0  0  0  0
   -0.0499    2.5308    0.5964 H   0  0  0  0  0  0  0  0  0  0  0  0
    1.5782    1.8852    0.2999 H   0  0  0  0  0  0  0  0  0  0  0  0
    0.4317    2.0568   -1.0517 H   0  0  0  0  0  0  0  0  0  0  0  0
    1.6979   -1.4490    1.1387 H   0  0  0  0  0  0  0  0  0  0  0  0
    2.3167   -1.8368   -0.4904 H   0  0  0  0  0  0  0  0  0  0  0  0
    2.6761   -0.2535    0.2390 H   0  0  0  0  0  0  0  0  0  0  0  0
   -3.0412   -0.7080   -0.2286 H   0  0  0  0  0  0  0  0  0  0  0  0
   -1.5640   -1.6879   -0.4607 H   0  0  0  0  0  0  0  0  0  0  0  0
   -1.9914   -1.0781    1.1681 H   0  0  0  0  0  0  0  0  0  0  0  0
  2  1  1  0
  3  1  1  0
  4  1  1  0
  5  4  1  0
  6  3  1  0
  7  1  1  0
  8  2  1  0
  9  2  1  0
 10  2  1  0
 11  5  1  0
 12  5  1  0
 13  5  1  0
 14  6  1  0
 15  6  1  0
 16  6  1  0
M  END
