2-methylthiophene
     RDKit          3D

 12 12  0  0  0  0  0  0  0  0999 V2000
   -0.2373   -1.1966    0.0001 S   0  0  0  0  0  0  0  0  0  0  0  0
    0.7876    0.2229    0.0001 C   0  0  0  0  0  0  0  0  0  0  0  0
    0.0206    1.3602    0.0001 C   0  0  0  0  0  0  0  0  0  0  0  0
   -1.3883    1.1053    0.0001 C   0  0  0  0  0  0  0  0  0  0  0  0
   -1.6828   -0.2302    0.0002 C   0  0  0  0  0  0  0  0  0  0  0  0
    2.2834    0.1047    0.0002 C   0  0  0  0  0  0  0  0  0  0  0  0
    0.4526    2.3557   -0.0000 H   0  0  0  0  0  0  0  0  0  0  0  0
   -2.1434    1.8834    0.0001 H   0  0  0  0  0  0  0  0  0  0  0  0
   -2.6535   -0.7067    0.0002 H   0  0  0  0  0  0  0  0  0  0  0  0
    2.6523   -0.4274    0.8847 H   0  0  0  0  0  0  0  0  0  0  0  0
    2.6523   -0.4292   -0.8832 H   0  0  0  0  0  0  0  0  0  0  0  0
    2.7314    1.1026   -0.0009 H   0  0  0  0  0  0  0  0  0  0  0  0
  2  1  1  0
  3  2  2  0
  4  3  1  0
  5  4  2  0
  5  1  1  0
  6  2  1  0
  7  3  1  0
  8  4  1  0
  9  5  1  0
 10  6  1  0
 11  6  1  0
 12  6  1  0
M  END
