malononitrile
     RDKit          3D

  7  6  0  0  0  0  0  0  0  0999 V2000
    0.0000    0.0000    0.8373 C   0  0  0  0  0  0  0  0  0  0  0  0
    0.0000    1.2255    0.0260 C   0  0  0  0  0  0  0  0  0  0  0  0
    0.0000   -1.2255    0.0260 C   0  0  0  0  0  0  0  0  0  0  0  0
    0.0000    2.2089   -0.5882 N   0  0  0  0  0  0  0  0  0  0  0  0
    0.0000   -2.2089   -0.5882 N   0  0  0  0  0  0  0  0  0  0  0  0
    0.8835    0.0000    1.4869 H   0  0  0  0  0  0  0  0  0  0  0  0
   -0.8835    0.0000    1.4869 H   0  0  0  0  0  0  0  0  0  0  0  0
  2  1  1  0
  3  1  1  0
  4  2  3  0
  5  3  3  0
  6  1  1  0
  7  1  1  0
M  END
