ethylene carbonate
     RDKit          3D

 10 10  0  0  0  0  0  0  0  0999 V2000
    0.0000    0.0000    0.8519 C   0  0  0  0  0  0  0  0  0  0  0  0
   -0.0013    1.1180    0.0714 O   0  0  0  0  0  0  0  0  0  0  0  0
    0.1865    0.7440   -1.3046 C   0  0  0  0  0  0  0  0  0  0  0  0
   -0.1865   -0.7440   -1.3046 C   0  0  0  0  0  0  0  0  0  0  0  0
    0.0013   -1.1180    0.0714 O   0  0  0  0  0  0  0  0  0  0  0  0
    0.0000    0.0000    2.0484 O   0  0  0  0  0  0  0  0  0  0  0  0
    1.2330    0.9188   -1.5749 H   0  0  0  0  0  0  0  0  0  0  0  0
   -0.4642    1.3620   -1.9248 H   0  0  0  0  0  0  0  0  0  0  0  0
   -1.2330   -0.9188   -1.5749 H   0  0  0  0  0  0  0  0  0  0  0  0
    0.4642   -1.3620   -1.9248 H   0  0  0  0  0  0  0  0  0  0  0  0
  2  1  1  0
  3  2  1  0
  4  3  1  0
  5  4  1  0
  5  1  1  0
  6  1  2  0
  7  3  1  0
  8  3  1  0
  9  4  1  0
 10  4  1  0
M  END
