ethyl sulfide
     RDKit          3D

 15 14  0  0  0  0  0  0  0  0999 V2000
    0.0000   -0.5622    0.0000 S   0  0  0  0  0  0  0  0  0  0  0  0
    1.4064    0.6210    0.0000 C   0  0  0  0  0  0  0  0  0  0  0  0
   -1.4064    0.6210    0.0000 C   0  0  0  0  0  0  0  0  0  0  0  0
    2.7364   -0.1328    0.0000 C   0  0  0  0  0  0  0  0  0  0  0  0
   -2.7364   -0.1328    0.0000 C   0  0  0  0  0  0  0  0  0  0  0  0
    1.3289    1.2598   -0.8869 H   0  0  0  0  0  0  0  0  0  0  0  0
    1.3289    1.2598    0.8869 H   0  0  0  0  0  0  0  0  0  0  0  0
   -1.3289    1.2598   -0.8869 H   0  0  0  0  0  0  0  0  0  0  0  0
   -1.3289    1.2598    0.8869 H   0  0  0  0  0  0  0  0  0  0  0  0
    2.8325   -0.7680   -0.8863 H   0  0  0  0  0  0  0  0  0  0  0  0
    3.5708    0.5769    0.0000 H   0  0  0  0  0  0  0  0  0  0  0  0
    2.8325   -0.7680    0.8863 H   0  0  0  0  0  0  0  0  0  0  0  0
   -2.8325   -0.7680    0.8863 H   0  0  0  0  0  0  0  0  0  0  0  0
   -3.5708    0.5769    0.0000 H   0  0  0  0  0  0  0  0  0  0  0  0
   -2.8325   -0.7680   -0.8863 H   0  0  0  0  0  0  0  0  0  0  0  0
  2  1  1  0
  3  1  1  0
  4  2  1  0
  5  3  1  0
  6  2  1  0
  7  2  1  0
  8  3  1  0
  9  3  1  0
 10  4  1  0
 11  4  1  0
 12  4  1  0
 13  5  1  0
 14  5  1  0
 15  5  1  0
M  END
