fumaronitrile
     RDKit          3D

  8  7  0  0  0  0  0  0  0  0999 V2000
    0.4880    0.4655   -0.0000 C   0  0  0  0  0  0  0  0  0  0  0  0
   -0.4880   -0.4655   -0.0000 C   0  0  0  0  0  0  0  0  0  0  0  0
    1.8711    0.1162    0.0000 C   0  0  0  0  0  0  0  0  0  0  0  0
   -1.8711   -0.1162    0.0000 C   0  0  0  0  0  0  0  0  0  0  0  0
    3.0056   -0.1439    0.0000 N   0  0  0  0  0  0  0  0  0  0  0  0
   -3.0056    0.1439    0.0000 N   0  0  0  0  0  0  0  0  0  0  0  0
    0.2523    1.5262    0.0000 H   0  0  0  0  0  0  0  0  0  0  0  0
   -0.2523   -1.5262    0.0000 H   0  0  0  0  0  0  0  0  0  0  0  0
  2  1  2  0
  3  1  1  0
  4  2  1  0
  5  3  3  0
  6  4  3  0
  7  1  1  0
  8  2  1  0
M  END
