beta-butyrolactone
     RDKit          3D

 12 12  0  0  0  0  0  0  0  0999 V2000
    1.0788   -0.0118   -0.0366 C   0  0  0  0  0  0  0  0  0  0  0  0
    0.1090    1.1609    0.0815 C   0  0  0  0  0  0  0  0  0  0  0  0
   -0.9113    0.0729    0.4736 C   0  0  2  0  0  0  0  0  0  0  0  0
    0.1449   -0.9585    0.3080 O   0  0  0  0  0  0  0  0  0  0  0  0
   -2.0916   -0.1793   -0.4368 C   0  0  0  0  0  0  0  0  0  0  0  0
    2.2324   -0.1842   -0.3084 O   0  0  0  0  0  0  0  0  0  0  0  0
   -0.0820    1.6772   -0.8628 H   0  0  0  0  0  0  0  0  0  0  0  0
    0.3778    1.8859    0.8531 H   0  0  0  0  0  0  0  0  0  0  0  0
   -1.2043    0.0950    1.5268 H   0  0  0  0  0  0  0  0  0  0  0  0
   -2.5722   -1.1305   -0.1895 H   0  0  0  0  0  0  0  0  0  0  0  0
   -2.8312    0.6204   -0.3184 H   0  0  0  0  0  0  0  0  0  0  0  0
   -1.7785   -0.2123   -1.4853 H   0  0  0  0  0  0  0  0  0  0  0  0
  2  1  1  0
  3  2  1  0
  4  3  1  0
  4  1  1  0
  5  3  1  0
  6  1  2  0
  7  2  1  0
  8  2  1  0
  3  9  1  1
 10  5  1  0
 11  5  1  0
 12  5  1  0
M  END
