dimethylcyanamide
     RDKit          3D

 11 10  0  0  0  0  0  0  0  0999 V2000
    0.2992    0.0001   -0.2350 N   0  0  0  0  0  0  0  0  0  0  0  0
    1.0152   -1.2473    0.0582 C   0  0  0  0  0  0  0  0  0  0  0  0
    1.0145    1.2478    0.0582 C   0  0  0  0  0  0  0  0  0  0  0  0
   -1.0258   -0.0003   -0.0444 C   0  0  0  0  0  0  0  0  0  0  0  0
   -2.1892   -0.0009    0.0783 N   0  0  0  0  0  0  0  0  0  0  0  0
    0.4217   -2.0947   -0.2884 H   0  0  0  0  0  0  0  0  0  0  0  0
    1.9658   -1.2390   -0.4823 H   0  0  0  0  0  0  0  0  0  0  0  0
    1.2148   -1.3634    1.1331 H   0  0  0  0  0  0  0  0  0  0  0  0
    1.9650    1.2402   -0.4823 H   0  0  0  0  0  0  0  0  0  0  0  0
    0.4205    2.0950   -0.2882 H   0  0  0  0  0  0  0  0  0  0  0  0
    1.2141    1.3641    1.1331 H   0  0  0  0  0  0  0  0  0  0  0  0
  2  1  1  0
  3  1  1  0
  4  1  1  0
  5  4  3  0
  6  2  1  0
  7  2  1  0
  8  2  1  0
  9  3  1  0
 10  3  1  0
 11  3  1  0
M  END
