allyl isothiocyanate
     RDKit          3D

 11 10  0  0  0  0  0  0  0  0999 V2000
   -2.9250   -0.8827   -0.2742 C   0  0  0  0  0  0  0  0  0  0  0  0
   -1.9324   -0.3279    0.4236 C   0  0  0  0  0  0  0  0  0  0  0  0
   -1.3053    0.9990    0.0749 C   0  0  0  0  0  0  0  0  0  0  0  0
    0.1172    0.9067   -0.1305 N   0  0  0  0  0  0  0  0  0  0  0  0
    1.1407    0.2951   -0.0613 C   0  0  0  0  0  0  0  0  0  0  0  0
    2.5629   -0.4206   -0.0162 S   0  0  0  0  0  0  0  0  0  0  0  0
   -3.3339   -0.4084   -1.1635 H   0  0  0  0  0  0  0  0  0  0  0  0
   -3.3645   -1.8302    0.0221 H   0  0  0  0  0  0  0  0  0  0  0  0
   -1.5309   -0.8255    1.3052 H   0  0  0  0  0  0  0  0  0  0  0  0
   -1.7576    1.4125   -0.8327 H   0  0  0  0  0  0  0  0  0  0  0  0
   -1.4731    1.7272    0.8796 H   0  0  0  0  0  0  0  0  0  0  0  0
  2  1  2  0
  3  2  1  0
  4  3  1  0
  5  4  2  0
  6  5  2  0
  7  1  1  0
  8  1  1  0
  9  2  1  0
 10  3  1  0
 11  3  1  0
M  END
