1,3,5-triazine
     RDKit          3D

  9  9  0  0  0  0  0  0  0  0999 V2000
   -0.6872   -1.1904    0.0000 N   0  0  0  0  0  0  0  0  0  0  0  0
   -1.2973   -0.0000    0.0000 C   0  0  0  0  0  0  0  0  0  0  0  0
   -0.6872    1.1904    0.0000 N   0  0  0  0  0  0  0  0  0  0  0  0
    0.6486    1.1235    0.0000 C   0  0  0  0  0  0  0  0  0  0  0  0
    1.3747    0.0000   -0.0000 N   0  0  0  0  0  0  0  0  0  0  0  0
    0.6487   -1.1235   -0.0000 C   0  0  0  0  0  0  0  0  0  0  0  0
   -2.3848   -0.0000    0.0000 H   0  0  0  0  0  0  0  0  0  0  0  0
    1.1925    2.0653   -0.0000 H   0  0  0  0  0  0  0  0  0  0  0  0
    1.1925   -2.0653    0.0000 H   0  0  0  0  0  0  0  0  0  0  0  0
  2  1  1  0
  3  2  2  0
  4  3  1  0
  5  4  2  0
  6  5  1  0
  6  1  2  0
  7  2  1  0
  8  4  1  0
  9  6  1  0
M  END
