diketene
     RDKit          3D

 10 10  0  0  0  0  0  0  0  0999 V2000
   -1.0526   -0.0045   -0.0003 C   0  0  0  0  0  0  0  0  0  0  0  0
   -0.0406   -0.9672    0.0002 O   0  0  0  0  0  0  0  0  0  0  0  0
    0.9601    0.0356    0.0000 C   0  0  0  0  0  0  0  0  0  0  0  0
   -0.0541    1.1553    0.0002 C   0  0  0  0  0  0  0  0  0  0  0  0
   -2.2308   -0.1860   -0.0002 O   0  0  0  0  0  0  0  0  0  0  0  0
    2.2697   -0.1579   -0.0001 C   0  0  0  0  0  0  0  0  0  0  0  0
   -0.0920    1.7812   -0.8952 H   0  0  0  0  0  0  0  0  0  0  0  0
   -0.0922    1.7805    0.8960 H   0  0  0  0  0  0  0  0  0  0  0  0
    2.6884   -1.1576   -0.0002 H   0  0  0  0  0  0  0  0  0  0  0  0
    2.9432    0.6906   -0.0001 H   0  0  0  0  0  0  0  0  0  0  0  0
  2  1  1  0
  3  2  1  0
  4  3  1  0
  4  1  1  0
  5  1  2  0
  6  3  2  0
  7  4  1  0
  8  4  1  0
  9  6  1  0
 10  6  1  0
M  END
