pivalaldehyde
     RDKit          3D

 16 15  0  0  0  0  0  0  0  0999 V2000
    0.3279    0.0284    0.0000 C   0  0  0  0  0  0  0  0  0  0  0  0
    0.1731    1.5539   -0.0001 C   0  0  0  0  0  0  0  0  0  0  0  0
    1.0785   -0.4537    1.2632 C   0  0  0  0  0  0  0  0  0  0  0  0
    1.0800   -0.4537   -1.2623 C   0  0  0  0  0  0  0  0  0  0  0  0
   -1.0333   -0.6579   -0.0008 C   0  0  0  0  0  0  0  0  0  0  0  0
   -2.1106   -0.1003   -0.0011 O   0  0  0  0  0  0  0  0  0  0  0  0
   -0.3780    1.8945    0.8813 H   0  0  0  0  0  0  0  0  0  0  0  0
    1.1579    2.0339    0.0005 H   0  0  0  0  0  0  0  0  0  0  0  0
   -0.3769    1.8944   -0.8823 H   0  0  0  0  0  0  0  0  0  0  0  0
    0.5751   -0.1195    2.1768 H   0  0  0  0  0  0  0  0  0  0  0  0
    1.1552   -1.5468    1.2953 H   0  0  0  0  0  0  0  0  0  0  0  0
    2.0961   -0.0481    1.2692 H   0  0  0  0  0  0  0  0  0  0  0  0
    1.1568   -1.5468   -1.2941 H   0  0  0  0  0  0  0  0  0  0  0  0
    0.5778   -0.1197   -2.1764 H   0  0  0  0  0  0  0  0  0  0  0  0
    2.0977   -0.0481   -1.2670 H   0  0  0  0  0  0  0  0  0  0  0  0
   -0.9826   -1.7718   -0.0009 H   0  0  0  0  0  0  0  0  0  0  0  0
  2  1  1  0
  3  1  1  0
  4  1  1  0
  5  1  1  0
  6  5  2  0
  7  2  1  0
  8  2  1  0
  9  2  1  0
 10  3  1  0
 11  3  1  0
 12  3  1  0
 13  4  1  0
 14  4  1  0
 15  4  1  0
 16  5  1  0
M  END
