isoprene
     RDKit          3D

 13 12  0  0  0  0  0  0  0  0999 V2000
    1.5913   -0.9107    0.0000 C   0  0  0  0  0  0  0  0  0  0  0  0
    0.5165   -0.0985   -0.0000 C   0  0  0  0  0  0  0  0  0  0  0  0
   -0.8335   -0.6788    0.0001 C   0  0  0  0  0  0  0  0  0  0  0  0
   -1.9898    0.0045    0.0001 C   0  0  0  0  0  0  0  0  0  0  0  0
    0.6611    1.4044    0.0001 C   0  0  0  0  0  0  0  0  0  0  0  0
    1.4842   -1.9922    0.0002 H   0  0  0  0  0  0  0  0  0  0  0  0
    2.6040   -0.5186    0.0001 H   0  0  0  0  0  0  0  0  0  0  0  0
   -0.8714   -1.7678    0.0001 H   0  0  0  0  0  0  0  0  0  0  0  0
   -2.0256    1.0899    0.0001 H   0  0  0  0  0  0  0  0  0  0  0  0
   -2.9444   -0.5120    0.0001 H   0  0  0  0  0  0  0  0  0  0  0  0
    0.1826    1.8475   -0.8816 H   0  0  0  0  0  0  0  0  0  0  0  0
    0.1829    1.8473    0.8820 H   0  0  0  0  0  0  0  0  0  0  0  0
    1.7136    1.6985   -0.0001 H   0  0  0  0  0  0  0  0  0  0  0  0
  2  1  2  0
  3  2  1  0
  4  3  2  0
  5  2  1  0
  6  1  1  0
  7  1  1  0
  8  3  1  0
  9  4  1  0
 10  4  1  0
 11  5  1  0
 12  5  1  0
 13  5  1  0
M  END
