tert-butyl isocyanide
     RDKit          3D

 15 14  0  0  0  0  0  0  0  0999 V2000
   -0.2580   -0.0002    0.0001 C   0  0  0  0  0  0  0  0  0  0  0  0
   -0.7376   -0.4765    1.3842 C   0  0  0  0  0  0  0  0  0  0  0  0
   -0.7350    1.4374   -0.2797 C   0  0  0  0  0  0  0  0  0  0  0  0
   -0.7348   -0.9606   -1.1056 C   0  0  0  0  0  0  0  0  0  0  0  0
    1.1878   -0.0006    0.0017 N   0  0  0  0  0  0  0  0  0  0  0  0
    2.3635   -0.0010    0.0031 C   0  0  0  0  0  0  0  0  0  0  0  0
   -1.8317   -0.4830    1.4122 H   0  0  0  0  0  0  0  0  0  0  0  0
   -0.3773   -1.4880    1.5922 H   0  0  0  0  0  0  0  0  0  0  0  0
   -0.3726    0.1901    2.1707 H   0  0  0  0  0  0  0  0  0  0  0  0
   -0.3666    2.1239    0.4878 H   0  0  0  0  0  0  0  0  0  0  0  0
   -0.3762    1.7815   -1.2538 H   0  0  0  0  0  0  0  0  0  0  0  0
   -1.8291    1.4685   -0.2797 H   0  0  0  0  0  0  0  0  0  0  0  0
   -0.3745   -0.6330   -2.0849 H   0  0  0  0  0  0  0  0  0  0  0  0
   -0.3673   -1.9743   -0.9226 H   0  0  0  0  0  0  0  0  0  0  0  0
   -1.8288   -0.9842   -1.1260 H   0  0  0  0  0  0  0  0  0  0  0  0
  2  1  1  0
  3  1  1  0
  4  1  1  0
  5  1  1  0
  6  5  3  0
  7  2  1  0
  8  2  1  0
  9  2  1  0
 10  3  1  0
 11  3  1  0
 12  3  1  0
 13  4  1  0
 14  4  1  0
 15  4  1  0
M  CHG  2   5   1   6  -1
M  END
