ethyl cyanoformate
     RDKit          3D

 12 11  0  0  0  0  0  0  0  0999 V2000
    2.9170   -1.0108   -0.0002 N   0  0  0  0  0  0  0  0  0  0  0  0
    1.9230   -0.4118   -0.0001 C   0  0  0  0  0  0  0  0  0  0  0  0
    0.7072    0.4171    0.0001 C   0  0  0  0  0  0  0  0  0  0  0  0
   -0.3804   -0.3526   -0.0000 O   0  0  0  0  0  0  0  0  0  0  0  0
   -1.6656    0.3459    0.0001 C   0  0  0  0  0  0  0  0  0  0  0  0
   -2.7525   -0.7086    0.0000 C   0  0  0  0  0  0  0  0  0  0  0  0
    0.7453    1.6260    0.0004 O   0  0  0  0  0  0  0  0  0  0  0  0
   -1.7004    0.9851   -0.8864 H   0  0  0  0  0  0  0  0  0  0  0  0
   -1.7004    0.9849    0.8868 H   0  0  0  0  0  0  0  0  0  0  0  0
   -2.6862   -1.3428   -0.8884 H   0  0  0  0  0  0  0  0  0  0  0  0
   -2.6862   -1.3430    0.8883 H   0  0  0  0  0  0  0  0  0  0  0  0
   -3.7307   -0.2170    0.0001 H   0  0  0  0  0  0  0  0  0  0  0  0
  2  1  3  0
  3  2  1  0
  4  3  1  0
  5  4  1  0
  6  5  1  0
  7  3  2  0
  8  5  1  0
  9  5  1  0
 10  6  1  0
 11  6  1  0
 12  6  1  0
M  END
