quadricyclane
     RDKit          3D

 15 18  0  0  0  0  0  0  0  0999 V2000
   -1.0847   -0.0239   -0.7101 C   0  0  2  0  0  0  0  0  0  0  0  0
    0.0003   -1.0850   -0.7101 C   0  0  1  0  0  0  0  0  0  0  0  0
    1.0847    0.0239   -0.7101 C   0  0  1  0  0  0  0  0  0  0  0  0
   -0.0003    1.0850   -0.7101 C   0  0  2  0  0  0  0  0  0  0  0  0
    0.8063    0.8245    0.5520 C   0  0  1  0  0  0  0  0  0  0  0  0
   -0.8063   -0.8245    0.5520 C   0  0  1  0  0  0  0  0  0  0  0  0
    0.0000    0.0000    1.5415 C   0  0  0  0  0  0  0  0  0  0  0  0
   -2.0345   -0.0060   -1.2316 H   0  0  0  0  0  0  0  0  0  0  0  0
    0.0394   -2.0342   -1.2316 H   0  0  0  0  0  0  0  0  0  0  0  0
    2.0345    0.0060   -1.2316 H   0  0  0  0  0  0  0  0  0  0  0  0
   -0.0394    2.0342   -1.2316 H   0  0  0  0  0  0  0  0  0  0  0  0
    1.5304    1.5650    0.8782 H   0  0  0  0  0  0  0  0  0  0  0  0
   -1.5304   -1.5650    0.8782 H   0  0  0  0  0  0  0  0  0  0  0  0
    0.6378   -0.6236    2.1801 H   0  0  0  0  0  0  0  0  0  0  0  0
   -0.6378    0.6236    2.1801 H   0  0  0  0  0  0  0  0  0  0  0  0
  2  1  1  0
  3  2  1  0
  4  3  1  0
  4  1  1  0
  5  4  1  0
  5  3  1  0
  6  2  1  0
  6  1  1  0
  7  6  1  0
  7  5  1  0
  1  8  1  6
  2  9  1  6
  3 10  1  6
  4 11  1  6
  5 12  1  1
  6 13  1  1
 14  7  1  0
 15  7  1  0
M  END
