TMS
     RDKit          3D

 17 16  0  0  0  0  0  0  0  0999 V2000
    0.0000    0.0000    0.0000 Si  0  0  0  0  0  4  0  0  0  0  0  0
    1.0941    1.0941    1.0941 C   0  0  0  0  0  0  0  0  0  0  0  0
   -1.0941   -1.0941    1.0941 C   0  0  0  0  0  0  0  0  0  0  0  0
   -1.0941    1.0941   -1.0941 C   0  0  0  0  0  0  0  0  0  0  0  0
    1.0941   -1.0941   -1.0941 C   0  0  0  0  0  0  0  0  0  0  0  0
    1.7411    1.7411    0.4900 H   0  0  0  0  0  0  0  0  0  0  0  0
    1.7411    0.4900    1.7411 H   0  0  0  0  0  0  0  0  0  0  0  0
    0.4900    1.7411    1.7411 H   0  0  0  0  0  0  0  0  0  0  0  0
   -1.7411   -1.7411    0.4900 H   0  0  0  0  0  0  0  0  0  0  0  0
   -0.4900   -1.7411    1.7411 H   0  0  0  0  0  0  0  0  0  0  0  0
   -1.7411   -0.4900    1.7411 H   0  0  0  0  0  0  0  0  0  0  0  0
   -1.7411    0.4900   -1.7411 H   0  0  0  0  0  0  0  0  0  0  0  0
   -0.4900    1.7411   -1.7411 H   0  0  0  0  0  0  0  0  0  0  0  0
   -1.7411    1.7411   -0.4900 H   0  0  0  0  0  0  0  0  0  0  0  0
    0.4900   -1.7411   -1.7411 H   0  0  0  0  0  0  0  0  0  0  0  0
    1.7411   -0.4900   -1.7411 H   0  0  0  0  0  0  0  0  0  0  0  0
    1.7411   -1.7411   -0.4900 H   0  0  0  0  0  0  0  0  0  0  0  0
  2  1  1  0
  3  1  1  0
  4  1  1  0
  5  1  1  0
  6  2  1  0
  7  2  1  0
  8  2  1  0
  9  3  1  0
 10  3  1  0
 11  3  1  0
 12  4  1  0
 13  4  1  0
 14  4  1  0
 15  5  1  0
 16  5  1  0
 17  5  1  0
M  END
