
     RDKit          3D

 14 13  0  0  0  0  0  0  0  0999 V2000
    2.3901    0.0801    0.2620 C   0  0  0  0  0  0  0  0  0  0  0  0
    1.0162   -0.4735   -0.0136 C   0  0  0  0  0  0  0  0  0  0  0  0
    0.0919    0.1857    0.6943 O   0  0  0  0  0  0  0  0  0  0  0  0
   -1.2696   -0.2130    0.5255 C   0  0  0  0  0  0  0  0  0  0  0  0
   -1.9020    0.4693   -0.6794 C   0  0  0  0  0  0  0  0  0  0  0  0
    0.7721   -1.3870   -0.7559 O   0  0  0  0  0  0  0  0  0  0  0  0
    2.4189    1.1285   -0.0242 H   0  0  0  0  0  0  0  0  0  0  0  0
    2.6007    0.0127    1.3262 H   0  0  0  0  0  0  0  0  0  0  0  0
    3.1293   -0.4799   -0.3017 H   0  0  0  0  0  0  0  0  0  0  0  0
   -1.7688    0.0797    1.4513 H   0  0  0  0  0  0  0  0  0  0  0  0
   -1.3080   -1.3006    0.4066 H   0  0  0  0  0  0  0  0  0  0  0  0
   -1.3900    0.1635   -1.5886 H   0  0  0  0  0  0  0  0  0  0  0  0
   -2.9477    0.1845   -0.7519 H   0  0  0  0  0  0  0  0  0  0  0  0
   -1.8330    1.5499   -0.5804 H   0  0  0  0  0  0  0  0  0  0  0  0
  1  2  1  0
  2  3  1  0
  3  4  1  0
  4  5  1  0
  2  6  2  0
  1  7  1  0
  1  8  1  0
  1  9  1  0
  4 10  1  0
  4 11  1  0
  5 12  1  0
  5 13  1  0
  5 14  1  0
M  END
