
     RDKit          3D

 14 13  0  0  0  0  0  0  0  0999 V2000
    2.4172    0.0764    0.2706 C   0  0  0  0  0  0  0  0  0  0  0  0
    1.0412   -0.4801   -0.0076 C   0  0  0  0  0  0  0  0  0  0  0  0
    0.0941    0.1996    0.6817 O   0  0  0  0  0  0  0  0  0  0  0  0
   -1.2854   -0.2192    0.5090 C   0  0  0  0  0  0  0  0  0  0  0  0
   -1.9315    0.4767   -0.6808 C   0  0  0  0  0  0  0  0  0  0  0  0
    0.7992   -1.4146   -0.7458 O   0  0  0  0  0  0  0  0  0  0  0  0
    2.4631    1.1278   -0.0311 H   0  0  0  0  0  0  0  0  0  0  0  0
    2.6300    0.0349    1.3435 H   0  0  0  0  0  0  0  0  0  0  0  0
    3.1603   -0.5005   -0.2803 H   0  0  0  0  0  0  0  0  0  0  0  0
   -1.7687    0.0627    1.4477 H   0  0  0  0  0  0  0  0  0  0  0  0
   -1.3107   -1.3061    0.3968 H   0  0  0  0  0  0  0  0  0  0  0  0
   -1.4464    0.1827   -1.6159 H   0  0  0  0  0  0  0  0  0  0  0  0
   -2.9891    0.1945   -0.7416 H   0  0  0  0  0  0  0  0  0  0  0  0
   -1.8732    1.5650   -0.5760 H   0  0  0  0  0  0  0  0  0  0  0  0
  1  2  1  0
  2  3  1  0
  3  4  1  0
  4  5  1  0
  2  6  2  0
  1  7  1  0
  1  8  1  0
  1  9  1  0
  4 10  1  0
  4 11  1  0
  5 12  1  0
  5 13  1  0
  5 14  1  0
M  END
